pglib_opf_case1951_rte.m
%%%%%%%%%%%%%%%%%%%%%%%%%%%%%%%%%%%%%%%%%%%%%%%%%%%%%%%%%%%%%%%%%%%%%%%%%%%
%%%%                                                                  %%%%%
%%%%    IEEE PES Power Grid Library - Optimal Power Flow - v17.08     %%%%%
%%%%          (https://github.com/power-grid-lib/pglib-opf)           %%%%%
%%%%               Benchmark Group - Typical Operations               %%%%%
%%%%                        29 - August - 2017                        %%%%%
%%%%                                                                  %%%%%
%%%%%%%%%%%%%%%%%%%%%%%%%%%%%%%%%%%%%%%%%%%%%%%%%%%%%%%%%%%%%%%%%%%%%%%%%%%
%
%CASE1951RTE
%   AC Power flow data for French system.
%   Please see CASEFORMAT for details on the case file format.
%
%   This case accurately represents the size and complexity of French
%   very high voltage transmission network.
%   Part of this data was sampled in the offline platform of iTesla.
%   These data can be used to validate mathematical methods and tools.
%   These data should NOT be used for operation
%   nor planning of the French or European grids.
%
%   When publishing results using this data, please cite:
%     C. Josz, S. Fliscounakis, J. Maeght, and P. Panciatici,
%     "AC Power Flow Data in MATPOWER and QCQP Format: iTesla, RTE Snapshots, and PEGASE"
%     http://arxiv.org/abs/1603.01533
%
%   Contacts (primary contact for this file : Jean Maeght):
%   Cédric Josz, Stéphane Fliscounakis, Jean Maeght, Patrick Panciatici
%   firstname.lastname@rte-france.com
%   Réseau de Transport d'Electricité (French Transmission System Operator)
%   Département Expertise Système, Immeuble "Le Colbert"
%   9 rue de la Porte de Buc, 78000 Versailles Cedex, France
%   March 4th, 2016
%
%   Copyright (c) 2016 by Cédric Josz, Stéphane Fliscounakis, Jean Maeght,
%   and Patrick Panciatici
%   Licensed under the Creative Commons Attribution 4.0 International license,
%   http://creativecommons.org/licenses/by/4.0/
%
function mpc = pglib_opf_case1951_rte
mpc.version = '2';
mpc.baseMVA = 100.0;

%% bus data
%	bus_i	type	Pd	Qd	Gs	Bs	area	Vm	Va	baseKV	zone	Vmax	Vmin
mpc.bus = [
	1	 1	 36.4	 19.5	 0.0	 0.0	 1	    0.98889	    0.00000	 225.0	 1	    1.08889	    0.88889;
	2	 1	 0.0	 0.0	 0.0	 0.0	 1	    1.07552	    0.00000	 380.0	 1	    1.10263	    1.04841;
	3	 1	 245.2	 16.4	 0.0	 0.0	 1	    1.04444	    0.00000	 225.0	 1	    1.08444	    1.00444;
	4	 1	 0.0	 0.0	 0.0	 0.0	 1	    1.00334	    0.00000	 150.0	 1	    1.10667	    0.90000;
	5	 1	 51.8	 13.5	 0.0	 0.0	 1	    1.01111	    0.00000	 225.0	 1	    1.08889	    0.93333;
	6	 1	 36.6	 11.6	 0.0	 0.0	 1	    1.01111	    0.00000	 225.0	 1	    1.08889	    0.93333;
	7	 1	 0.0	 0.0	 0.0	 0.0	 1	    1.07237	    0.00000	 380.0	 1	    1.10526	    1.03947;
	8	 1	 0.0	 0.0	 0.0	 0.0	 1	    1.07237	    0.00000	 380.0	 1	    1.10526	    1.03947;
	9	 1	 0.0	 0.0	 0.0	 0.0	 1	    1.04739	    0.00000	 225.0	 1	    1.09035	    1.00444;
	10	 1	 193.4	 48.9	 0.0	 0.0	 1	    1.01111	    0.00000	 225.0	 1	    1.08889	    0.93333;
	11	 1	 57.7	 14.6	 0.0	 0.0	 1	    1.04666	    0.00000	 225.0	 1	    1.08889	    1.00444;
	12	 1	 27.8	 24.4	 0.0	 0.0	 1	    1.04666	    0.00000	 225.0	 1	    1.08889	    1.00444;
	13	 1	 177.5	 52.5	 0.0	 0.0	 1	    1.04666	    0.00000	 225.0	 1	    1.08889	    1.00444;
	14	 1	 75.8	 7.3	 0.0	 0.0	 1	    1.01626	    0.00000	 225.0	 1	    1.08252	    0.95000;
	15	 1	 0.0	 0.0	 0.0	 0.0	 1	    1.04666	    0.00000	 225.0	 1	    1.08889	    1.00444;
	16	 1	 0.0	 0.0	 0.0	 0.0	 1	    1.04666	    0.00000	 225.0	 1	    1.08889	    1.00444;
	17	 1	 66.2	 0.9	 0.0	 0.0	 1	    0.98889	    0.00000	 225.0	 1	    1.08889	    0.88889;
	18	 1	 12.3	 7.1	 0.0	 0.0	 1	    1.04150	    0.00000	 225.0	 1	    1.09633	    0.98667;
	19	 1	 67.9	 23.0	 0.0	 0.0	 1	    1.04666	    0.00000	 225.0	 1	    1.08889	    1.00444;
	20	 1	 29.2	 7.2	 0.0	 0.0	 1	    1.04666	    0.00000	 225.0	 1	    1.08889	    1.00444;
	21	 1	 77.8	 31.2	 0.0	 0.0	 1	    1.04666	    0.00000	 225.0	 1	    1.08889	    1.00444;
	22	 1	 105.6	 22.8	 0.0	 0.0	 1	    1.03778	    0.00000	 225.0	 1	    1.08889	    0.98667;
	23	 1	 41.1	 2.7	 0.0	 0.0	 1	    0.98889	    0.00000	 225.0	 1	    1.08889	    0.88889;
	25	 1	 56.2	 8.1	 0.0	 0.0	 1	    1.04666	    0.00000	 225.0	 1	    1.08444	    1.00889;
	26	 1	 29.3	 6.4	 0.0	 0.0	 1	    1.04666	    0.00000	 225.0	 1	    1.08444	    1.00889;
	27	 1	 102.1	 38.0	 0.0	 0.0	 1	    1.01111	    0.00000	 225.0	 1	    1.08889	    0.93333;
	28	 1	 172.1	 40.0	 0.0	 0.0	 1	    1.04666	    0.00000	 225.0	 1	    1.08889	    1.00444;
	29	 1	 0.0	 0.0	 0.0	 0.0	 1	    1.07684	    0.00000	 380.0	 1	    1.10526	    1.04842;
	30	 1	 0.0	 0.0	 0.0	 0.0	 1	    1.07684	    0.00000	 380.0	 1	    1.10526	    1.04842;
	31	 1	 36.2	 31.7	 0.0	 0.0	 1	    1.04666	    0.00000	 225.0	 1	    1.08444	    1.00889;
	33	 1	 133.2	 20.1	 0.0	 0.0	 1	    1.04666	    0.00000	 225.0	 1	    1.08444	    1.00889;
	34	 1	 89.4	 29.6	 0.0	 0.0	 1	    1.04666	    0.00000	 225.0	 1	    1.08889	    1.00444;
	2013	 1	 0.0	 0.0	 0.0	 0.0	 1	    1.04666	    0.00000	 225.0	 1	    1.08889	    1.00444;
	35	 1	 10.3	 -0.4	 0.0	 0.0	 1	    1.02333	    0.00000	 150.0	 1	    1.08000	    0.96667;
	36	 1	 22.3	 6.7	 0.0	 80.0	 1	    1.04606	    0.00000	 225.0	 1	    1.09212	    1.00000;
	37	 1	 0.0	 0.0	 0.0	 0.0	 1	    1.07655	    0.00000	 380.0	 1	    1.10526	    1.04785;
	38	 1	 144.2	 18.9	 0.0	 0.0	 1	    1.03778	    0.00000	 225.0	 1	    1.08889	    0.98667;
	39	 1	 117.8	 31.5	 0.0	 0.0	 1	    1.02889	    0.00000	 225.0	 1	    1.08889	    0.96889;
	40	 1	 194.8	 53.6	 0.0	 0.0	 1	    1.05263	    0.00000	 380.0	 1	    1.10526	    1.00000;
	41	 1	 64.7	 12.6	 0.0	 0.0	 1	    1.01111	    0.00000	 225.0	 1	    1.08889	    0.93333;
	42	 1	 44.6	 15.6	 0.0	 0.0	 1	    0.98889	    0.00000	 225.0	 1	    1.08889	    0.88889;
	43	 1	 46.9	 11.7	 0.0	 0.0	 1	    0.98889	    0.00000	 225.0	 1	    1.08889	    0.88889;
	44	 1	 381.3	 62.5	 0.0	 0.0	 1	    1.04470	    0.00000	 225.0	 1	    1.08496	    1.00444;
	45	 1	 161.5	 -38.5	 0.0	 0.0	 1	    1.04666	    0.00000	 225.0	 1	    1.08889	    1.00444;
	46	 2	 0.0	 0.0	 0.0	 0.0	 1	    1.00422	    0.00000	 150.0	 1	    1.10843	    0.90000;
	47	 1	 0.0	 0.0	 0.0	 0.0	 1	    1.04666	    0.00000	 225.0	 1	    1.08889	    1.00444;
	48	 1	 0.0	 0.0	 0.0	 0.0	 1	    1.04666	    0.00000	 225.0	 1	    1.08889	    1.00444;
	49	 1	 123.5	 43.4	 0.0	 0.0	 1	    1.04666	    0.00000	 225.0	 1	    1.08889	    1.00444;
	50	 1	 10.0	 3.7	 0.0	 0.0	 1	    1.04666	    0.00000	 225.0	 1	    1.08889	    1.00444;
	51	 1	 0.0	 0.0	 0.0	 0.0	 1	    1.04445	    0.00000	 225.0	 1	    1.08889	    1.00000;
	52	 1	 74.6	 28.0	 0.0	 0.0	 1	    0.98889	    0.00000	 225.0	 1	    1.08889	    0.88889;
	53	 1	 160.2	 38.2	 0.0	 0.0	 1	    1.02889	    0.00000	 225.0	 1	    1.08889	    0.96889;
	54	 1	 0.0	 0.0	 0.0	 0.0	 1	    1.05263	    0.00000	 380.0	 1	    1.10526	    1.00000;
	55	 1	 31.0	 11.0	 0.0	 0.0	 1	    1.04666	    0.00000	 225.0	 1	    1.08444	    1.00889;
	56	 1	 14.7	 -1.0	 0.0	 0.0	 1	    1.04666	    0.00000	 225.0	 1	    1.08444	    1.00889;
	1827	 1	 201.2	 11.7	 0.0	 0.0	 1	    1.04666	    0.00000	 225.0	 1	    1.08889	    1.00444;
	57	 1	 57.0	 3.0	 0.0	 0.0	 1	    1.01139	    0.00000	 225.0	 1	    1.08945	    0.93333;
	58	 2	 0.0	 0.0	 0.0	 0.0	 1	    1.00431	    0.00000	 150.0	 1	    1.10862	    0.90000;
	59	 1	 55.4	 19.7	 0.0	 0.0	 1	    1.04666	    0.00000	 225.0	 1	    1.08444	    1.00889;
	60	 1	 55.7	 41.6	 0.0	 0.0	 1	    1.04666	    0.00000	 225.0	 1	    1.08444	    1.00889;
	61	 1	 0.0	 0.0	 0.0	 0.0	 1	    1.03333	    0.00000	 225.0	 1	    1.08889	    0.97778;
	62	 1	 16.4	 4.9	 0.0	 0.0	 1	    0.98889	    0.00000	 225.0	 1	    1.08889	    0.88889;
	63	 1	 1.6	 12.7	 0.0	 0.0	 1	    1.01111	    0.00000	 225.0	 1	    1.08889	    0.93333;
	64	 1	 29.7	 12.0	 0.0	 0.0	 1	    1.04666	    0.00000	 225.0	 1	    1.08889	    1.00444;
	65	 1	 54.7	 13.6	 0.0	 0.0	 1	    1.04666	    0.00000	 225.0	 1	    1.08889	    1.00444;
	66	 1	 -21.9	 -5.1	 0.0	 0.0	 1	    1.04445	    0.00000	 225.0	 1	    1.08889	    1.00000;
	67	 1	 29.2	 -2.5	 0.0	 0.0	 1	    1.03778	    0.00000	 225.0	 1	    1.08889	    0.98667;
	68	 1	 0.0	 0.0	 0.0	 80.0	 1	    0.98889	    0.00000	 225.0	 1	    1.08889	    0.88889;
	69	 1	 0.0	 0.0	 0.0	 0.0	 1	    0.98889	    0.00000	 225.0	 1	    1.08889	    0.88889;
	70	 1	 0.0	 0.0	 0.0	 0.0	 1	    1.05921	    0.00000	 380.0	 1	    1.10526	    1.01316;
	71	 1	 76.3	 14.3	 0.0	 0.0	 1	    1.04666	    0.00000	 225.0	 1	    1.08889	    1.00444;
	72	 1	 29.0	 5.0	 0.0	 0.0	 1	    1.04666	    0.00000	 225.0	 1	    1.08889	    1.00444;
	73	 1	 0.0	 0.0	 0.0	 0.0	 1	    1.03333	    0.00000	 225.0	 1	    1.08889	    0.97778;
	74	 1	 0.0	 0.0	 0.0	 0.0	 1	    1.03333	    0.00000	 225.0	 1	    1.08889	    0.97778;
	75	 1	 182.4	 31.2	 0.0	 0.0	 1	    1.04666	    0.00000	 225.0	 1	    1.08444	    1.00889;
	76	 1	 0.0	 0.0	 0.0	 0.0	 1	    1.04444	    0.00000	 225.0	 1	    1.08444	    1.00444;
	77	 1	 0.0	 0.0	 0.0	 0.0	 1	    1.07237	    0.00000	 380.0	 1	    1.10263	    1.04211;
	78	 1	 116.1	 17.6	 0.0	 0.0	 1	    1.04444	    0.00000	 225.0	 1	    1.08444	    1.00444;
	79	 1	 -7.4	 0.9	 0.0	 0.0	 1	    1.04690	    0.00000	 225.0	 1	    1.08936	    1.00444;
	80	 1	 14.0	 12.6	 0.0	 0.0	 1	    1.04690	    0.00000	 225.0	 1	    1.08936	    1.00444;
	81	 1	 48.7	 2.9	 0.0	 0.0	 1	    0.98889	    0.00000	 225.0	 1	    1.08889	    0.88889;
	82	 1	 27.9	 3.3	 0.0	 0.0	 1	    1.01562	    0.00000	 225.0	 1	    1.08124	    0.95000;
	83	 1	 61.9	 19.7	 0.0	 0.0	 1	    0.98889	    0.00000	 225.0	 1	    1.08889	    0.88889;
	84	 1	 158.1	 -16.5	 0.0	 0.0	 1	    1.04445	    0.00000	 225.0	 1	    1.08889	    1.00000;
	85	 1	 0.0	 0.0	 0.0	 0.0	 1	    1.04445	    0.00000	 225.0	 1	    1.08889	    1.00000;
	86	 1	 403.7	 124.8	 0.0	 0.0	 1	    1.07798	    0.00000	 380.0	 1	    1.10526	    1.05070;
	87	 1	 108.6	 44.4	 0.0	 0.0	 1	    1.04445	    0.00000	 225.0	 1	    1.08889	    1.00000;
	88	 1	 140.7	 36.8	 0.0	 0.0	 1	    1.04445	    0.00000	 225.0	 1	    1.08889	    1.00000;
	89	 2	 0.0	 0.0	 0.0	 0.0	 1	    1.00000	    0.00000	 150.0	 1	    1.10000	    0.90000;
	90	 1	 56.6	 23.2	 0.0	 0.0	 1	    1.03778	    0.00000	 225.0	 1	    1.08889	    0.98667;
	91	 1	 12.5	 6.1	 0.0	 0.0	 1	    1.04666	    0.00000	 225.0	 1	    1.08444	    1.00889;
	92	 1	 0.0	 0.0	 0.0	 0.0	 1	    1.07369	    0.00000	 380.0	 1	    1.10526	    1.04211;
	93	 1	 0.0	 0.0	 0.0	 0.0	 1	    1.07369	    0.00000	 380.0	 1	    1.10526	    1.04211;
	96	 1	 12.7	 0.6	 0.0	 0.0	 1	    1.04445	    0.00000	 225.0	 1	    1.08889	    1.00000;
	97	 1	 18.3	 11.1	 0.0	 0.0	 1	    1.04666	    0.00000	 225.0	 1	    1.08889	    1.00444;
	98	 1	 90.8	 9.6	 0.0	 0.0	 1	    1.00000	    0.00000	 150.0	 1	    1.10000	    0.90000;
	99	 1	 82.1	 -2.6	 0.0	 0.0	 1	    1.04445	    0.00000	 225.0	 1	    1.08889	    1.00000;
	100	 2	 1.3	 0.0	 0.0	 0.0	 1	    1.01647	    0.00000	 225.0	 1	    1.08294	    0.95000;
	101	 1	 0.0	 0.0	 0.0	 0.0	 1	    1.01111	    0.00000	 225.0	 1	    1.08889	    0.93333;
	102	 1	 0.0	 0.0	 0.0	 0.0	 1	    1.07237	    0.00000	 380.0	 1	    1.10526	    1.03947;
	103	 1	 0.0	 0.0	 0.0	 0.0	 1	    1.07237	    0.00000	 380.0	 1	    1.10526	    1.03947;
	104	 1	 0.0	 0.0	 0.0	 0.0	 1	    1.04666	    0.00000	 225.0	 1	    1.08889	    1.00444;
	1828	 1	 86.9	 24.6	 0.0	 0.0	 1	    1.04666	    0.00000	 225.0	 1	    1.08889	    1.00444;
	105	 1	 0.0	 0.0	 0.0	 0.0	 1	    1.03778	    0.00000	 225.0	 1	    1.08889	    0.98667;
	106	 1	 12.8	 7.6	 0.0	 0.0	 1	    1.04666	    0.00000	 225.0	 1	    1.08889	    1.00444;
	107	 1	 150.1	 27.1	 0.0	 0.0	 1	    1.01111	    0.00000	 225.0	 1	    1.08889	    0.93333;
	108	 1	 0.0	 0.0	 0.0	 0.0	 1	    1.07237	    0.00000	 380.0	 1	    1.10526	    1.03947;
	109	 1	 32.1	 -1.6	 0.0	 0.0	 1	    1.04445	    0.00000	 225.0	 1	    1.08889	    1.00000;
	110	 1	 29.4	 1.2	 0.0	 0.0	 1	    1.04715	    0.00000	 225.0	 1	    1.08986	    1.00444;
	111	 1	 131.9	 2.8	 0.0	 0.0	 1	    1.04806	    0.00000	 225.0	 1	    1.09612	    1.00000;
	112	 1	 174.9	 55.6	 0.0	 0.0	 1	    1.03778	    0.00000	 225.0	 1	    1.08889	    0.98667;
	113	 1	 129.6	 33.2	 0.0	 0.0	 1	    1.04740	    0.00000	 225.0	 1	    1.09036	    1.00444;
	114	 1	 245.6	 120.6	 0.0	 0.0	 1	    1.00667	    0.00000	 225.0	 1	    1.08889	    0.92444;
	115	 1	 82.1	 14.7	 0.0	 0.0	 1	    1.04140	    0.00000	 225.0	 1	    1.09614	    0.98667;
	117	 1	 0.0	 0.0	 0.0	 0.0	 1	    1.07237	    0.00000	 380.0	 1	    1.10526	    1.03947;
	119	 1	 192.0	 -29.8	 0.0	 0.0	 1	    1.04444	    0.00000	 225.0	 1	    1.08444	    1.00444;
	120	 1	 21.6	 -16.9	 0.0	 0.0	 1	    1.04666	    0.00000	 225.0	 1	    1.08444	    1.00889;
	121	 1	 0.0	 0.0	 0.0	 0.0	 1	    1.06579	    0.00000	 380.0	 1	    1.10263	    1.02895;
	122	 1	 -0.1	 -4.2	 0.0	 0.0	 1	    1.01111	    0.00000	 225.0	 1	    1.08889	    0.93333;
	123	 1	 172.6	 37.2	 0.0	 0.0	 1	    1.01111	    0.00000	 225.0	 1	    1.08889	    0.93333;
	124	 1	 31.9	 29.8	 0.0	 0.0	 1	    1.00000	    0.00000	 63.0	 1	    1.07937	    0.92063;
	125	 2	 0.0	 0.0	 0.0	 0.0	 1	    1.01238	    0.00000	 225.0	 1	    1.07476	    0.95000;
	126	 1	 4.4	 5.3	 0.0	 0.0	 1	    1.04884	    0.00000	 225.0	 1	    1.09768	    1.00000;
	127	 1	 0.0	 0.0	 0.0	 0.0	 1	    1.07895	    0.00000	 380.0	 1	    1.10526	    1.05263;
	128	 1	 0.0	 0.0	 0.0	 0.0	 1	    1.07895	    0.00000	 380.0	 1	    1.10526	    1.05263;
	129	 1	 0.0	 0.0	 0.0	 0.0	 1	    1.07895	    0.00000	 380.0	 1	    1.10526	    1.05263;
	130	 1	 0.0	 0.0	 0.0	 0.0	 1	    1.07895	    0.00000	 380.0	 1	    1.10526	    1.05263;
	131	 1	 0.0	 0.0	 0.0	 0.0	 1	    1.04156	    0.00000	 225.0	 1	    1.09645	    0.98667;
	132	 1	 0.0	 0.0	 0.0	 0.0	 1	    1.04156	    0.00000	 225.0	 1	    1.09645	    0.98667;
	133	 1	 0.0	 0.0	 0.0	 0.0	 1	    1.07237	    0.00000	 380.0	 1	    1.10526	    1.03947;
	134	 1	 123.5	 26.5	 0.0	 0.0	 1	    1.02889	    0.00000	 225.0	 1	    1.08889	    0.96889;
	135	 1	 39.1	 10.1	 0.0	 0.0	 1	    1.04666	    0.00000	 225.0	 1	    1.08444	    1.00889;
	136	 1	 4.4	 -3.3	 0.0	 0.0	 1	    1.07237	    0.00000	 380.0	 1	    1.10526	    1.03947;
	137	 1	 166.9	 46.7	 0.0	 0.0	 1	    1.01111	    0.00000	 225.0	 1	    1.08889	    0.93333;
	138	 1	 0.0	 0.0	 0.0	 0.0	 1	    1.07237	    0.00000	 380.0	 1	    1.10526	    1.03947;
	140	 1	 202.0	 20.2	 0.0	 0.0	 1	    1.04666	    0.00000	 225.0	 1	    1.08444	    1.00889;
	142	 1	 231.3	 -18.3	 0.0	 0.0	 1	    1.04444	    0.00000	 225.0	 1	    1.08444	    1.00444;
	143	 1	 49.3	 7.8	 0.0	 0.0	 1	    1.01111	    0.00000	 225.0	 1	    1.08889	    0.93333;
	144	 1	 40.6	 10.3	 0.0	 0.0	 1	    1.01111	    0.00000	 225.0	 1	    1.08889	    0.93333;
	145	 1	 49.8	 -6.2	 0.0	 0.0	 1	    1.04698	    0.00000	 225.0	 1	    1.08952	    1.00444;
	146	 1	 0.0	 0.0	 0.0	 0.0	 1	    1.04739	    0.00000	 225.0	 1	    1.09478	    1.00000;
	147	 1	 0.0	 0.0	 0.0	 0.0	 1	    1.04739	    0.00000	 225.0	 1	    1.09478	    1.00000;
	148	 1	 68.7	 4.5	 0.0	 0.0	 1	    1.04445	    0.00000	 225.0	 1	    1.08889	    1.00000;
	149	 1	 30.0	 -1.5	 0.0	 0.0	 1	    1.04666	    0.00000	 225.0	 1	    1.08889	    1.00444;
	150	 1	 52.2	 3.9	 0.0	 0.0	 1	    1.04666	    0.00000	 225.0	 1	    1.08444	    1.00889;
	151	 1	 40.2	 6.8	 0.0	 0.0	 1	    1.04445	    0.00000	 225.0	 1	    1.08889	    1.00000;
	152	 1	 0.0	 0.0	 0.0	 0.0	 1	    1.04666	    0.00000	 225.0	 1	    1.08444	    1.00889;
	153	 1	 0.0	 0.0	 0.0	 0.0	 1	    1.04666	    0.00000	 225.0	 1	    1.08444	    1.00889;
	154	 1	 0.0	 0.0	 0.0	 0.0	 1	    1.04666	    0.00000	 225.0	 1	    1.08444	    1.00889;
	155	 1	 0.0	 0.0	 0.0	 0.0	 1	    1.06579	    0.00000	 380.0	 1	    1.10263	    1.02895;
	156	 1	 165.9	 38.2	 0.0	 0.0	 1	    0.98889	    0.00000	 225.0	 1	    1.08889	    0.88889;
	157	 1	 0.0	 0.0	 0.0	 0.0	 1	    1.04883	    0.00000	 225.0	 1	    1.09766	    1.00000;
	158	 1	 0.0	 0.0	 0.0	 0.0	 1	    1.07895	    0.00000	 380.0	 1	    1.10526	    1.05263;
	159	 1	 37.1	 -0.1	 0.0	 0.0	 1	    1.03778	    0.00000	 225.0	 1	    1.08889	    0.98667;
	160	 1	 17.9	 14.6	 0.0	 0.0	 1	    1.04445	    0.00000	 225.0	 1	    1.08889	    1.00000;
	161	 1	 0.0	 0.0	 0.0	 0.0	 1	    1.04444	    0.00000	 225.0	 1	    1.08444	    1.00444;
	162	 1	 0.0	 0.0	 0.0	 0.0	 1	    1.04444	    0.00000	 225.0	 1	    1.08444	    1.00444;
	163	 1	 0.0	 0.0	 0.0	 0.0	 1	    1.04444	    0.00000	 225.0	 1	    1.08444	    1.00444;
	164	 1	 96.9	 -7.4	 0.0	 0.0	 1	    1.04444	    0.00000	 225.0	 1	    1.08444	    1.00444;
	165	 1	 0.0	 0.0	 0.0	 0.0	 1	    1.01111	    0.00000	 225.0	 1	    1.08889	    0.93333;
	166	 1	 8.5	 -5.2	 0.0	 0.0	 1	    1.03778	    0.00000	 225.0	 1	    1.08889	    0.98667;
	167	 1	 0.0	 0.0	 0.0	 0.0	 1	    1.04470	    0.00000	 225.0	 1	    1.08941	    1.00000;
	168	 1	 0.0	 0.0	 0.0	 0.0	 1	    1.07895	    0.00000	 380.0	 1	    1.10526	    1.05263;
	169	 2	 0.0	 0.0	 0.0	 0.0	 1	    1.00000	    0.00000	 225.0	 1	    1.10000	    0.90000;
	170	 1	 13.0	 4.0	 0.0	 0.0	 1	    1.02333	    0.00000	 150.0	 1	    1.08000	    0.96667;
	171	 1	 50.4	 4.5	 0.0	 0.0	 1	    1.04666	    0.00000	 225.0	 1	    1.08889	    1.00444;
	172	 1	 0.4	 0.6	 0.0	 0.0	 1	    1.04666	    0.00000	 225.0	 1	    1.08889	    1.00444;
	173	 1	 29.1	 -7.9	 0.0	 0.0	 1	    0.98889	    0.00000	 225.0	 1	    1.08889	    0.88889;
	175	 1	 0.0	 0.0	 0.0	 0.0	 1	    1.04588	    0.00000	 225.0	 1	    1.09176	    1.00000;
	176	 1	 0.0	 0.0	 0.0	 0.0	 1	    1.04588	    0.00000	 225.0	 1	    1.09176	    1.00000;
	177	 1	 0.0	 0.0	 0.0	 0.0	 1	    1.04588	    0.00000	 225.0	 1	    1.09176	    1.00000;
	178	 1	 0.0	 0.0	 0.0	 0.0	 1	    1.04588	    0.00000	 225.0	 1	    1.09176	    1.00000;
	179	 1	 0.0	 0.0	 0.0	 0.0	 1	    1.04588	    0.00000	 225.0	 1	    1.09176	    1.00000;
	180	 2	 0.0	 0.0	 0.0	 0.0	 1	    1.00338	    0.00000	 380.0	 1	    1.10676	    0.90000;
	181	 1	 181.5	 39.9	 0.0	 0.0	 1	    1.04445	    0.00000	 225.0	 1	    1.08889	    1.00000;
	182	 1	 32.0	 21.4	 0.0	 0.0	 1	    1.03778	    0.00000	 225.0	 1	    1.08889	    0.98667;
	183	 1	 0.0	 0.0	 0.0	 0.0	 1	    1.07237	    0.00000	 380.0	 1	    1.10526	    1.03947;
	184	 1	 0.0	 0.0	 0.0	 0.0	 1	    1.07237	    0.00000	 380.0	 1	    1.10526	    1.03947;
	185	 1	 0.0	 0.0	 0.0	 0.0	 1	    1.07237	    0.00000	 380.0	 1	    1.10526	    1.03947;
	186	 1	 0.0	 0.0	 0.0	 0.0	 1	    1.07237	    0.00000	 380.0	 1	    1.10526	    1.03947;
	187	 1	 65.9	 23.3	 0.0	 0.0	 1	    1.00667	    0.00000	 225.0	 1	    1.08889	    0.92444;
	188	 1	 5.4	 1.4	 0.0	 0.0	 1	    1.03778	    0.00000	 225.0	 1	    1.08889	    0.98667;
	189	 1	 101.7	 -4.3	 0.0	 0.0	 1	    1.04444	    0.00000	 225.0	 1	    1.08444	    1.00444;
	190	 1	 -6.8	 -0.2	 0.0	 0.0	 1	    1.07237	    0.00000	 380.0	 1	    1.10263	    1.04211;
	191	 1	 -5.3	 -0.0	 0.0	 0.0	 1	    1.07237	    0.00000	 380.0	 1	    1.10263	    1.04211;
	192	 1	 0.0	 0.0	 0.0	 0.0	 1	    1.04666	    0.00000	 225.0	 1	    1.08889	    1.00444;
	193	 1	 0.0	 0.0	 0.0	 0.0	 1	    1.03333	    0.00000	 225.0	 1	    1.08889	    0.97778;
	194	 1	 0.0	 0.0	 0.0	 0.0	 1	    1.03333	    0.00000	 225.0	 1	    1.08889	    0.97778;
	195	 1	 135.5	 19.2	 0.0	 0.0	 1	    1.02889	    0.00000	 225.0	 1	    1.08889	    0.96889;
	196	 1	 0.0	 0.0	 0.0	 0.0	 1	    1.01111	    0.00000	 225.0	 1	    1.08889	    0.93333;
	197	 1	 0.0	 0.0	 0.0	 0.0	 1	    1.01111	    0.00000	 225.0	 1	    1.08889	    0.93333;
	198	 1	 98.9	 26.5	 0.0	 0.0	 1	    1.04444	    0.00000	 225.0	 1	    1.08444	    1.00444;
	199	 1	 299.2	 -25.2	 0.0	 0.0	 1	    1.04444	    0.00000	 225.0	 1	    1.08444	    1.00444;
	200	 1	 0.0	 0.0	 0.0	 0.0	 1	    1.03333	    0.00000	 225.0	 1	    1.08889	    0.97778;
	201	 1	 0.0	 0.0	 0.0	 0.0	 1	    1.04444	    0.00000	 225.0	 1	    1.08444	    1.00444;
	202	 1	 211.2	 31.0	 0.0	 0.0	 1	    1.02000	    0.00000	 225.0	 1	    1.08889	    0.95111;
	203	 1	 89.7	 19.5	 0.0	 0.0	 1	    1.04666	    0.00000	 225.0	 1	    1.08889	    1.00444;
	204	 1	 92.2	 26.0	 0.0	 0.0	 1	    1.03778	    0.00000	 225.0	 1	    1.08889	    0.98667;
	205	 1	 29.6	 2.7	 0.0	 0.0	 1	    1.04666	    0.00000	 225.0	 1	    1.08444	    1.00889;
	206	 1	 0.0	 0.0	 0.0	 0.0	 1	    1.06579	    0.00000	 380.0	 1	    1.10263	    1.02895;
...
];

%% generator data
%	bus	Pg	Qg	Qmax	Qmin	Vg	mBase	status	Pmax	Pmin	Pc1	Pc2	Qc1min	Qc1max	Qc2min	Qc2max	ramp_agc	ramp_10	ramp_30	ramp_q	apf
mpc.gen = [
	1268	 44.5	 9.0	 27.0	 -9.0	 1.029	 100.0	 1	 45.0	 44.0	 0.0	 0.0	 0.0	 0.0	 0.0	 0.0	 0.0	 0.0	 0.0	 0.0	 0.0; % NG
	1268	 44.5	 9.0	 27.0	 -9.0	 1.029	 100.0	 1	 45.0	 44.0	 0.0	 0.0	 0.0	 0.0	 0.0	 0.0	 0.0	 0.0	 0.0	 0.0	 0.0; % NG
	1356	 13.2	 -2.5	 7.0	 -12.0	 1.057	 100.0	 1	 22.0	 4.4	 0.0	 0.0	 0.0	 0.0	 0.0	 0.0	 0.0	 0.0	 0.0	 0.0	 0.0; % PEL
	89	 15.0	 2.0	 13.0	 -9.0	 1.042	 100.0	 1	 25.0	 5.0	 0.0	 0.0	 0.0	 0.0	 0.0	 0.0	 0.0	 0.0	 0.0	 0.0	 0.0; % NG
	1837	 15.6	 -0.5	 16.0	 -17.0	 1.041	 100.0	 1	 26.0	 5.2	 0.0	 0.0	 0.0	 0.0	 0.0	 0.0	 0.0	 0.0	 0.0	 0.0	 0.0; % NG
	1837	 15.6	 -0.5	 16.0	 -17.0	 1.041	 100.0	 1	 26.0	 5.2	 0.0	 0.0	 0.0	 0.0	 0.0	 0.0	 0.0	 0.0	 0.0	 0.0	 0.0; % NG
	125	 14.04	 -4.5	 8.0	 -17.0	 1.075	 100.0	 1	 23.4	 4.68	 0.0	 0.0	 0.0	 0.0	 0.0	 0.0	 0.0	 0.0	 0.0	 0.0	 0.0; % PEL
	908	 12.0	 1.95	 2.0	 1.9	 1.106	 100.0	 1	 20.0	 4.0	 0.0	 0.0	 0.0	 0.0	 0.0	 0.0	 0.0	 0.0	 0.0	 0.0	 0.0; % PEL
	817	 7.2	 0.95	 1.0	 0.9	 1.108	 100.0	 1	 12.0	 2.4	 0.0	 0.0	 0.0	 0.0	 0.0	 0.0	 0.0	 0.0	 0.0	 0.0	 0.0; % PEL
	817	 8.4	 0.95	 1.0	 0.9	 1.108	 100.0	 1	 14.0	 2.8	 0.0	 0.0	 0.0	 0.0	 0.0	 0.0	 0.0	 0.0	 0.0	 0.0	 0.0; % NG
	817	 7.2	 0.95	 1.0	 0.9	 1.108	 100.0	 1	 12.0	 2.4	 0.0	 0.0	 0.0	 0.0	 0.0	 0.0	 0.0	 0.0	 0.0	 0.0	 0.0; % PEL
	1335	 18.0	 0.0	 10.0	 -10.0	 1.044	 100.0	 1	 30.0	 6.0	 0.0	 0.0	 0.0	 0.0	 0.0	 0.0	 0.0	 0.0	 0.0	 0.0	 0.0; % NG
	396	 6.6	 3.0	 5.0	 1.0	 1.031	 100.0	 0	 11.0	 2.2	 0.0	 0.0	 0.0	 0.0	 0.0	 0.0	 0.0	 0.0	 0.0	 0.0	 0.0; % NG
	396	 6.6	 3.0	 5.0	 1.0	 1.031	 100.0	 0	 11.0	 2.2	 0.0	 0.0	 0.0	 0.0	 0.0	 0.0	 0.0	 0.0	 0.0	 0.0	 0.0; % NG
	975	 21.0	 0.0	 15.0	 -15.0	 1.048	 100.0	 1	 35.0	 7.0	 0.0	 0.0	 0.0	 0.0	 0.0	 0.0	 0.0	 0.0	 0.0	 0.0	 0.0; % PEL
	858	 33.24	 0.0	 0.0	 0.0	 1.054	 100.0	 1	 55.4	 11.08	 0.0	 0.0	 0.0	 0.0	 0.0	 0.0	 0.0	 0.0	 0.0	 0.0	 0.0; % NG
	921	 25.2	 2.5	 25.0	 -20.0	 1.085	 100.0	 1	 42.0	 8.4	 0.0	 0.0	 0.0	 0.0	 0.0	 0.0	 0.0	 0.0	 0.0	 0.0	 0.0; % NG
	921	 25.2	 2.5	 25.0	 -20.0	 1.085	 100.0	 1	 42.0	 8.4	 0.0	 0.0	 0.0	 0.0	 0.0	 0.0	 0.0	 0.0	 0.0	 0.0	 0.0; % NG
	1255	 52.2	 0.87	 26.1	 -24.36	 1.067	 100.0	 1	 87.0	 17.4	 0.0	 0.0	 0.0	 0.0	 0.0	 0.0	 0.0	 0.0	 0.0	 0.0	 0.0; % NG
	169	 4.98	 0.0	 8.3	 -8.3	 1.065	 100.0	 1	 8.3	 1.66	 0.0	 0.0	 0.0	 0.0	 0.0	 0.0	 0.0	 0.0	 0.0	 0.0	 0.0; % PEL
	448	 2.0	 0.0	 0.0	 0.0	 1.068	 100.0	 1	 4.0	 0.0	 0.0	 0.0	 0.0	 0.0	 0.0	 0.0	 0.0	 0.0	 0.0	 0.0	 0.0; % NG
	241	 7.8	 0.0	 5.0	 -5.0	 1.027	 100.0	 0	 13.0	 2.6	 0.0	 0.0	 0.0	 0.0	 0.0	 0.0	 0.0	 0.0	 0.0	 0.0	 0.0; % PEL
	241	 7.8	 0.0	 5.0	 -5.0	 1.027	 100.0	 0	 13.0	 2.6	 0.0	 0.0	 0.0	 0.0	 0.0	 0.0	 0.0	 0.0	 0.0	 0.0	 0.0; % PEL
	241	 7.8	 0.0	 5.0	 -5.0	 1.027	 100.0	 0	 13.0	 2.6	 0.0	 0.0	 0.0	 0.0	 0.0	 0.0	 0.0	 0.0	 0.0	 0.0	 0.0; % COW
	241	 7.8	 0.0	 5.0	 -5.0	 1.027	 100.0	 0	 13.0	 2.6	 0.0	 0.0	 0.0	 0.0	 0.0	 0.0	 0.0	 0.0	 0.0	 0.0	 0.0; % NG
	270	 30.0	 9.0	 27.0	 -9.0	 1.022	 100.0	 1	 50.0	 10.0	 0.0	 0.0	 0.0	 0.0	 0.0	 0.0	 0.0	 0.0	 0.0	 0.0	 0.0; % NG
	885	 4.8	 0.0	 0.0	 0.0	 1.079	 100.0	 1	 8.0	 1.6	 0.0	 0.0	 0.0	 0.0	 0.0	 0.0	 0.0	 0.0	 0.0	 0.0	 0.0; % COW
	885	 4.8	 0.0	 0.0	 0.0	 1.079	 100.0	 1	 8.0	 1.6	 0.0	 0.0	 0.0	 0.0	 0.0	 0.0	 0.0	 0.0	 0.0	 0.0	 0.0; % PEL
	876	 32.4	 0.0	 0.0	 0.0	 1.046	 100.0	 1	 54.0	 10.8	 0.0	 0.0	 0.0	 0.0	 0.0	 0.0	 0.0	 0.0	 0.0	 0.0	 0.0; % NG
	180	 143.4	 2.5	 80.0	 -75.0	 1.106	 100.0	 1	 239.0	 47.8	 0.0	 0.0	 0.0	 0.0	 0.0	 0.0	 0.0	 0.0	 0.0	 0.0	 0.0; % NG
	46	 18.0	 3.0	 10.0	 -4.0	 1.107	 100.0	 1	 30.0	 6.0	 0.0	 0.0	 0.0	 0.0	 0.0	 0.0	 0.0	 0.0	 0.0	 0.0	 0.0; % NG
	803	 8.28	 -0.465	 4.63	 -5.56	 1.067	 100.0	 1	 13.8	 2.76	 0.0	 0.0	 0.0	 0.0	 0.0	 0.0	 0.0	 0.0	 0.0	 0.0	 0.0; % PEL
	356	 24.84	 0.415	 12.42	 -11.59	 1.06	 100.0	 1	 41.4	 8.28	 0.0	 0.0	 0.0	 0.0	 0.0	 0.0	 0.0	 0.0	 0.0	 0.0	 0.0; % PEL
	100	 78.0	 16.5	 59.0	 -26.0	 1.047	 100.0	 1	 130.0	 26.0	 0.0	 0.0	 0.0	 0.0	 0.0	 0.0	 0.0	 0.0	 0.0	 0.0	 0.0; % NG
	707	 12.6	 0.0	 8.0	 -8.0	 1.092	 100.0	 0	 21.0	 4.2	 0.0	 0.0	 0.0	 0.0	 0.0	 0.0	 0.0	 0.0	 0.0	 0.0	 0.0; % PEL
	973	 -4.0	 0.0	 0.0	 0.0	 1.121	 100.0	 1	 0.0	 -8.0	 0.0	 0.0	 0.0	 0.0	 0.0	 0.0	 0.0	 0.0	 0.0	 0.0	 0.0; % SYNC
	973	 31.8	 3.5	 17.0	 -10.0	 1.121	 100.0	 1	 53.0	 10.6	 0.0	 0.0	 0.0	 0.0	 0.0	 0.0	 0.0	 0.0	 0.0	 0.0	 0.0; % PEL
	1118	 33.0	 0.0	 0.0	 0.0	 1.041	 100.0	 1	 55.0	 11.0	 0.0	 0.0	 0.0	 0.0	 0.0	 0.0	 0.0	 0.0	 0.0	 0.0	 0.0; % NG
	897	 16.2	 3.5	 10.0	 -3.0	 1.069	 100.0	 1	 27.0	 5.4	 0.0	 0.0	 0.0	 0.0	 0.0	 0.0	 0.0	 0.0	 0.0	 0.0	 0.0; % PEL
	897	 16.2	 3.5	 10.0	 -3.0	 1.069	 100.0	 1	 27.0	 5.4	 0.0	 0.0	 0.0	 0.0	 0.0	 0.0	 0.0	 0.0	 0.0	 0.0	 0.0; % NG
	58	 3.6	 1.95	 2.0	 1.9	 1.107	 100.0	 1	 6.0	 1.2	 0.0	 0.0	 0.0	 0.0	 0.0	 0.0	 0.0	 0.0	 0.0	 0.0	 0.0; % NG
	82	 15.18	 0.0	 0.0	 0.0	 1.051	 100.0	 1	 25.3	 5.06	 0.0	 0.0	 0.0	 0.0	 0.0	 0.0	 0.0	 0.0	 0.0	 0.0	 0.0; % NG
	474	 31.2	 -1.5	 10.0	 -13.0	 1.076	 100.0	 1	 52.0	 10.4	 0.0	 0.0	 0.0	 0.0	 0.0	 0.0	 0.0	 0.0	 0.0	 0.0	 0.0; % NG
	1221	 34.8	 0.0	 35.0	 -35.0	 1.083	 100.0	 1	 58.0	 11.6	 0.0	 0.0	 0.0	 0.0	 0.0	 0.0	 0.0	 0.0	 0.0	 0.0	 0.0; % PEL
	355	 37.2	 0.0	 40.0	 -40.0	 1.092	 100.0	 0	 62.0	 12.4	 0.0	 0.0	 0.0	 0.0	 0.0	 0.0	 0.0	 0.0	 0.0	 0.0	 0.0; % NG
	471	 46.8	 0.5	 1.0	 0.0	 1.039	 100.0	 1	 78.0	 15.6	 0.0	 0.0	 0.0	 0.0	 0.0	 0.0	 0.0	 0.0	 0.0	 0.0	 0.0; % PEL
	1321	 6.6	 0.95	 1.0	 0.9	 1.108	 100.0	 1	 11.0	 2.2	 0.0	 0.0	 0.0	 0.0	 0.0	 0.0	 0.0	 0.0	 0.0	 0.0	 0.0; % NG
	1321	 1.25	 0.0	 0.1	 -0.1	 1.108	 100.0	 0	 2.5	 0.0	 0.0	 0.0	 0.0	 0.0	 0.0	 0.0	 0.0	 0.0	 0.0	 0.0	 0.0; % PEL
	1829	 14.1	 0.0	 8.0	 -8.0	 1.054	 100.0	 1	 23.5	 4.7	 0.0	 0.0	 0.0	 0.0	 0.0	 0.0	 0.0	 0.0	 0.0	 0.0	 0.0; % NG
	1005	 23.4	 0.0	 19.0	 -19.0	 1.11	 100.0	 1	 39.0	 7.8	 0.0	 0.0	 0.0	 0.0	 0.0	 0.0	 0.0	 0.0	 0.0	 0.0	 0.0; % NG
	14	 16.56	 0.0	 0.0	 0.0	 1.059	 100.0	 1	 27.6	 5.52	 0.0	 0.0	 0.0	 0.0	 0.0	 0.0	 0.0	 0.0	 0.0	 0.0	 0.0; % NG
	14	 14.4	 0.0	 0.0	 0.0	 1.059	 100.0	 1	 24.0	 4.8	 0.0	 0.0	 0.0	 0.0	 0.0	 0.0	 0.0	 0.0	 0.0	 0.0	 0.0; % NG
	1628	 435.0	 -31.125	 155.3	 -217.55	 0.997	 100.0	 1	 670.0	 200.0	 0.0	 0.0	 0.0	 0.0	 0.0	 0.0	 0.0	 0.0	 0.0	 0.0	 0.0; % COW
	1629	 420.0	 20.405	 231.39	 -190.58	 1.006	 100.0	 1	 700.0	 140.0	 0.0	 0.0	 0.0	 0.0	 0.0	 0.0	 0.0	 0.0	 0.0	 0.0	 0.0; % PEL
	1842	 13.8	 2.23	 15.23	 -10.77	 1.001	 100.0	 1	 23.0	 4.6	 0.0	 0.0	 0.0	 0.0	 0.0	 0.0	 0.0	 0.0	 0.0	 0.0	 0.0; % NG
	1843	 13.8	 2.06	 15.06	 -10.94	 1.004	 100.0	 1	 23.0	 4.6	 0.0	 0.0	 0.0	 0.0	 0.0	 0.0	 0.0	 0.0	 0.0	 0.0	 0.0; % PEL
	1844	 16.2	 4.62	 24.62	 -15.38	 0.997	 100.0	 1	 27.0	 5.4	 0.0	 0.0	 0.0	 0.0	 0.0	 0.0	 0.0	 0.0	 0.0	 0.0	 0.0; % NG
	1630	 51.6	 17.68	 43.86	 -8.5	 0.966	 100.0	 1	 86.0	 17.2	 0.0	 0.0	 0.0	 0.0	 0.0	 0.0	 0.0	 0.0	 0.0	 0.0	 0.0; % NG
	1631	 29.4	 6.23	 22.19	 -9.73	 0.97	 100.0	 1	 49.0	 9.8	 0.0	 0.0	 0.0	 0.0	 0.0	 0.0	 0.0	 0.0	 0.0	 0.0	 0.0; % NG
	1845	 74.4	 20.86	 71.8	 -30.08	 1.03	 100.0	 1	 124.0	 24.8	 0.0	 0.0	 0.0	 0.0	 0.0	 0.0	 0.0	 0.0	 0.0	 0.0	 0.0; % COW
	1846	 19.2	 0.0	 8.36	 -8.36	 1.05	 100.0	 1	 32.0	 6.4	 0.0	 0.0	 0.0	 0.0	 0.0	 0.0	 0.0	 0.0	 0.0	 0.0	 0.0; % PEL
	1632	 19.2	 0.0	 8.36	 -8.36	 1.05	 100.0	 1	 32.0	 6.4	 0.0	 0.0	 0.0	 0.0	 0.0	 0.0	 0.0	 0.0	 0.0	 0.0	 0.0; % PEL
	1847	 19.2	 -0.21	 8.15	 -8.57	 1.05	 100.0	 1	 32.0	 6.4	 0.0	 0.0	 0.0	 0.0	 0.0	 0.0	 0.0	 0.0	 0.0	 0.0	 0.0; % NG
	1848	 19.2	 -0.21	 8.15	 -8.57	 1.05	 100.0	 1	 32.0	 6.4	 0.0	 0.0	 0.0	 0.0	 0.0	 0.0	 0.0	 0.0	 0.0	 0.0	 0.0; % COW
	1849	 55.2	 10.77	 55.77	 -34.23	 1.032	 100.0	 1	 92.0	 18.4	 0.0	 0.0	 0.0	 0.0	 0.0	 0.0	 0.0	 0.0	 0.0	 0.0	 0.0; % NG
	1850	 55.2	 5.5	 50.5	 -39.5	 1.029	 100.0	 1	 92.0	 18.4	 0.0	 0.0	 0.0	 0.0	 0.0	 0.0	 0.0	 0.0	 0.0	 0.0	 0.0; % NG
	1851	 55.2	 11.32	 56.32	 -33.68	 1.032	 100.0	 1	 92.0	 18.4	 0.0	 0.0	 0.0	 0.0	 0.0	 0.0	 0.0	 0.0	 0.0	 0.0	 0.0; % NG
	1852	 55.2	 9.57	 54.57	 -35.43	 1.03	 100.0	 1	 92.0	 18.4	 0.0	 0.0	 0.0	 0.0	 0.0	 0.0	 0.0	 0.0	 0.0	 0.0	 0.0; % NG
	1853	 55.2	 10.26	 55.26	 -34.74	 1.032	 100.0	 1	 92.0	 18.4	 0.0	 0.0	 0.0	 0.0	 0.0	 0.0	 0.0	 0.0	 0.0	 0.0	 0.0; % NG
	1854	 55.2	 11.48	 56.48	 -33.52	 1.033	 100.0	 1	 92.0	 18.4	 0.0	 0.0	 0.0	 0.0	 0.0	 0.0	 0.0	 0.0	 0.0	 0.0	 0.0; % NG
	1633	 600.075	 22.385	 421.39	 -376.62	 1.013	 100.0	 1	 945.08	 255.07	 0.0	 0.0	 0.0	 0.0	 0.0	 0.0	 0.0	 0.0	 0.0	 0.0	 0.0; % NUC
	1634	 633.045	 29.81	 428.83	 -369.21	 1.013	 100.0	 1	 978.04	 288.05	 0.0	 0.0	 0.0	 0.0	 0.0	 0.0	 0.0	 0.0	 0.0	 0.0	 0.0; % COW
	1635	 616.08	 29.075	 428.07	 -369.92	 1.013	 100.0	 1	 976.08	 256.08	 0.0	 0.0	 0.0	 0.0	 0.0	 0.0	 0.0	 0.0	 0.0	 0.0	 0.0; % COW
	1636	 598.075	 21.865	 420.86	 -377.13	 1.013	 100.0	 1	 943.08	 253.07	 0.0	 0.0	 0.0	 0.0	 0.0	 0.0	 0.0	 0.0	 0.0	 0.0	 0.0; % COW
	1637	 204.0	 31.4	 153.03	 -90.23	 1.033	 100.0	 1	 252.0	 156.0	 0.0	 0.0	 0.0	 0.0	 0.0	 0.0	 0.0	 0.0	 0.0	 0.0	 0.0; % NG
	1638	 202.0	 30.815	 152.44	 -90.81	 1.029	 100.0	 1	 250.0	 154.0	 0.0	 0.0	 0.0	 0.0	 0.0	 0.0	 0.0	 0.0	 0.0	 0.0	 0.0; % NG
	1639	 202.0	 23.7	 105.68	 -58.28	 1.033	 100.0	 1	 250.0	 154.0	 0.0	 0.0	 0.0	 0.0	 0.0	 0.0	 0.0	 0.0	 0.0	 0.0	 0.0; % NG
	1640	 213.5	 34.45	 228.81	 -159.91	 1.05	 100.0	 1	 305.0	 122.0	 0.0	 0.0	 0.0	 0.0	 0.0	 0.0	 0.0	 0.0	 0.0	 0.0	 0.0; % NG
	1641	 122.0	 9.84	 94.32	 -74.64	 1.045	 100.0	 1	 155.0	 89.0	 0.0	 0.0	 0.0	 0.0	 0.0	 0.0	 0.0	 0.0	 0.0	 0.0	 0.0; % NG
	1642	 34.8	 1.44	 21.65	 -18.77	 1.006	 100.0	 1	 58.0	 11.6	 0.0	 0.0	 0.0	 0.0	 0.0	 0.0	 0.0	 0.0	 0.0	 0.0	 0.0; % PEL
	1643	 34.8	 2.675	 16.01	 -10.66	 1.005	 100.0	 1	 58.0	 11.6	 0.0	 0.0	 0.0	 0.0	 0.0	 0.0	 0.0	 0.0	 0.0	 0.0	 0.0; % NG
	1855	 34.8	 1.26	 21.47	 -18.95	 1.006	 100.0	 1	 58.0	 11.6	 0.0	 0.0	 0.0	 0.0	 0.0	 0.0	 0.0	 0.0	 0.0	 0.0	 0.0; % PEL
	1644	 34.8	 2.715	 16.05	 -10.62	 1.005	 100.0	 1	 58.0	 11.6	 0.0	 0.0	 0.0	 0.0	 0.0	 0.0	 0.0	 0.0	 0.0	 0.0	 0.0; % NG
	1645	 34.8	 2.475	 15.81	 -10.86	 1.005	 100.0	 1	 58.0	 11.6	 0.0	 0.0	 0.0	 0.0	 0.0	 0.0	 0.0	 0.0	 0.0	 0.0	 0.0; % NG
	1646	 198.0	 28.135	 146.45	 -90.18	 1.007	 100.0	 1	 263.0	 133.0	 0.0	 0.0	 0.0	 0.0	 0.0	 0.0	 0.0	 0.0	 0.0	 0.0	 0.0; % COW
	1647	 26.975	 6.29	 50.67	 -38.09	 1.061	 100.0	 1	 44.96	 8.99	 0.0	 0.0	 0.0	 0.0	 0.0	 0.0	 0.0	 0.0	 0.0	 0.0	 0.0; % NG
	1856	 83.4	 18.44	 108.44	 -71.56	 1.023	 100.0	 1	 139.0	 27.8	 0.0	 0.0	 0.0	 0.0	 0.0	 0.0	 0.0	 0.0	 0.0	 0.0	 0.0; % NG
	1857	 29.4	 4.32	 34.32	 -25.68	 0.986	 100.0	 1	 49.0	 9.8	 0.0	 0.0	 0.0	 0.0	 0.0	 0.0	 0.0	 0.0	 0.0	 0.0	 0.0; % NG
	1858	 29.4	 5.44	 55.44	 -44.56	 0.99	 100.0	 1	 49.0	 9.8	 0.0	 0.0	 0.0	 0.0	 0.0	 0.0	 0.0	 0.0	 0.0	 0.0	 0.0; % NG
	1859	 29.4	 4.29	 34.29	 -25.71	 0.988	 100.0	 1	 49.0	 9.8	 0.0	 0.0	 0.0	 0.0	 0.0	 0.0	 0.0	 0.0	 0.0	 0.0	 0.0; % NG
	2070	 29.4	 1.96	 31.96	 -28.04	 0.992	 100.0	 1	 49.0	 9.8	 0.0	 0.0	 0.0	 0.0	 0.0	 0.0	 0.0	 0.0	 0.0	 0.0	 0.0; % COW
	1860	 19.2	 0.84	 18.84	 -17.16	 1.039	 100.0	 1	 32.0	 6.4	 0.0	 0.0	 0.0	 0.0	 0.0	 0.0	 0.0	 0.0	 0.0	 0.0	 0.0; % PEL
	1861	 19.2	 1.75	 19.75	 -16.25	 1.046	 100.0	 1	 32.0	 6.4	 0.0	 0.0	 0.0	 0.0	 0.0	 0.0	 0.0	 0.0	 0.0	 0.0	 0.0; % NG
	1648	 601.29	 186.38	 530.99	 -158.23	 1.05	 100.0	 1	 936.29	 266.29	 0.0	 0.0	 0.0	 0.0	 0.0	 0.0	 0.0	 0.0	 0.0	 0.0	 0.0; % NUC
	1649	 607.82	 188.81	 533.69	 -156.07	 1.045	 100.0	 1	 942.82	 272.82	 0.0	 0.0	 0.0	 0.0	 0.0	 0.0	 0.0	 0.0	 0.0	 0.0	 0.0; % COW
	1650	 599.28	 192.43	 537.68	 -152.82	 1.05	 100.0	 1	 924.28	 274.28	 0.0	 0.0	 0.0	 0.0	 0.0	 0.0	 0.0	 0.0	 0.0	 0.0	 0.0; % COW
	1651	 597.8	 184.5	 529.89	 -160.89	 1.044	 100.0	 1	 922.8	 272.8	 0.0	 0.0	 0.0	 0.0	 0.0	 0.0	 0.0	 0.0	 0.0	 0.0	 0.0; % COW
	1652	 813.0	 264.02	 681.04	 -153.0	 1.018	 100.0	 1	 1308.0	 318.0	 0.0	 0.0	 0.0	 0.0	 0.0	 0.0	 0.0	 0.0	 0.0	 0.0	 0.0; % COW
	1862	 813.0	 264.015	 681.03	 -153.0	 1.018	 100.0	 1	 1308.0	 318.0	 0.0	 0.0	 0.0	 0.0	 0.0	 0.0	 0.0	 0.0	 0.0	 0.0	 0.0; % NG
	1653	 21.0	 2.08	 6.08	 -1.92	 1.041	 100.0	 1	 35.0	 7.0	 0.0	 0.0	 0.0	 0.0	 0.0	 0.0	 0.0	 0.0	 0.0	 0.0	 0.0; % PEL
	1654	 21.0	 2.21	 6.21	 -1.79	 1.041	 100.0	 1	 35.0	 7.0	 0.0	 0.0	 0.0	 0.0	 0.0	 0.0	 0.0	 0.0	 0.0	 0.0	 0.0; % NG
	1655	 21.0	 2.21	 6.21	 -1.79	 1.041	 100.0	 1	 35.0	 7.0	 0.0	 0.0	 0.0	 0.0	 0.0	 0.0	 0.0	 0.0	 0.0	 0.0	 0.0; % PEL
	1656	 21.0	 2.11	 6.11	 -1.89	 1.041	 100.0	 1	 35.0	 7.0	 0.0	 0.0	 0.0	 0.0	 0.0	 0.0	 0.0	 0.0	 0.0	 0.0	 0.0; % PEL
	1657	 21.0	 2.11	 6.11	 -1.89	 1.041	 100.0	 1	 35.0	 7.0	 0.0	 0.0	 0.0	 0.0	 0.0	 0.0	 0.0	 0.0	 0.0	 0.0	 0.0; % NG
	1658	 21.0	 2.11	 6.11	 -1.89	 1.041	 100.0	 1	 35.0	 7.0	 0.0	 0.0	 0.0	 0.0	 0.0	 0.0	 0.0	 0.0	 0.0	 0.0	 0.0; % NG
	1863	 22.18	 2.645	 18.45	 -13.16	 0.996	 100.0	 1	 36.97	 7.39	 0.0	 0.0	 0.0	 0.0	 0.0	 0.0	 0.0	 0.0	 0.0	 0.0	 0.0; % PEL
	1659	 22.18	 2.645	 18.45	 -13.16	 0.996	 100.0	 1	 36.97	 7.39	 0.0	 0.0	 0.0	 0.0	 0.0	 0.0	 0.0	 0.0	 0.0	 0.0	 0.0; % NG
	1660	 22.18	 3.55	 18.45	 -11.35	 0.996	 100.0	 1	 36.97	 7.39	 0.0	 0.0	 0.0	 0.0	 0.0	 0.0	 0.0	 0.0	 0.0	 0.0	 0.0; % NG
	1661	 22.18	 3.205	 18.11	 -11.7	 0.996	 100.0	 1	 36.97	 7.39	 0.0	 0.0	 0.0	 0.0	 0.0	 0.0	 0.0	 0.0	 0.0	 0.0	 0.0; % NG
	1662	 22.18	 2.4	 18.21	 -13.41	 0.995	 100.0	 1	 36.97	 7.39	 0.0	 0.0	 0.0	 0.0	 0.0	 0.0	 0.0	 0.0	 0.0	 0.0	 0.0; % NG
	1663	 22.18	 2.75	 18.55	 -13.05	 0.995	 100.0	 1	 36.97	 7.39	 0.0	 0.0	 0.0	 0.0	 0.0	 0.0	 0.0	 0.0	 0.0	 0.0	 0.0; % COW
	1864	 12.0	 0.54	 10.54	 -9.46	 0.975	 100.0	 1	 20.0	 4.0	 0.0	 0.0	 0.0	 0.0	 0.0	 0.0	 0.0	 0.0	 0.0	 0.0	 0.0; % NG
	1865	 12.0	 2.32	 12.32	 -7.68	 0.975	 100.0	 1	 20.0	 4.0	 0.0	 0.0	 0.0	 0.0	 0.0	 0.0	 0.0	 0.0	 0.0	 0.0	 0.0; % NG
	1866	 18.59	 2.03	 17.85	 -13.79	 0.994	 100.0	 1	 30.98	 6.2	 0.0	 0.0	 0.0	 0.0	 0.0	 0.0	 0.0	 0.0	 0.0	 0.0	 0.0; % PEL
	1664	 18.59	 2.03	 17.85	 -13.79	 0.993	 100.0	 1	 30.98	 6.2	 0.0	 0.0	 0.0	 0.0	 0.0	 0.0	 0.0	 0.0	 0.0	 0.0	 0.0; % PEL
	1665	 18.59	 2.195	 18.01	 -13.62	 0.994	 100.0	 1	 30.98	 6.2	 0.0	 0.0	 0.0	 0.0	 0.0	 0.0	 0.0	 0.0	 0.0	 0.0	 0.0; % NG
	1867	 18.59	 2.195	 18.01	 -13.62	 0.994	 100.0	 1	 30.98	 6.2	 0.0	 0.0	 0.0	 0.0	 0.0	 0.0	 0.0	 0.0	 0.0	 0.0	 0.0; % COW
	1666	 18.59	 2.07	 17.89	 -13.75	 0.995	 100.0	 1	 30.98	 6.2	 0.0	 0.0	 0.0	 0.0	 0.0	 0.0	 0.0	 0.0	 0.0	 0.0	 0.0; % NG
	1868	 18.59	 1.915	 17.74	 -13.91	 0.995	 100.0	 1	 30.98	 6.2	 0.0	 0.0	 0.0	 0.0	 0.0	 0.0	 0.0	 0.0	 0.0	 0.0	 0.0; % PEL
	1667	 833.5	 235.585	 656.06	 -184.89	 1.04	 100.0	 1	 1330.0	 337.0	 0.0	 0.0	 0.0	 0.0	 0.0	 0.0	 0.0	 0.0	 0.0	 0.0	 0.0; % COW
	1869	 913.5	 93.895	 515.51	 -327.72	 1.04	 100.0	 1	 1360.0	 467.0	 0.0	 0.0	 0.0	 0.0	 0.0	 0.0	 0.0	 0.0	 0.0	 0.0	 0.0; % COW
	1668	 863.5	 236.51	 656.92	 -183.9	 1.042	 100.0	 1	 1360.0	 367.0	 0.0	 0.0	 0.0	 0.0	 0.0	 0.0	 0.0	 0.0	 0.0	 0.0	 0.0; % PEL
	1669	 863.5	 227.615	 648.03	 -192.8	 1.048	 100.0	 1	 1360.0	 367.0	 0.0	 0.0	 0.0	 0.0	 0.0	 0.0	 0.0	 0.0	 0.0	 0.0	 0.0; % COW
	1870	 54.0	 10.11	 60.11	 -39.89	 0.977	 100.0	 1	 90.0	 18.0	 0.0	 0.0	 0.0	 0.0	 0.0	 0.0	 0.0	 0.0	 0.0	 0.0	 0.0; % NG
	1871	 57.0	 9.33	 59.33	 -40.67	 1.036	 100.0	 0	 95.0	 19.0	 0.0	 0.0	 0.0	 0.0	 0.0	 0.0	 0.0	 0.0	 0.0	 0.0	 0.0; % NG
	1872	 61.2	 9.61	 59.61	 -40.39	 0.993	 100.0	 0	 102.0	 20.4	 0.0	 0.0	 0.0	 0.0	 0.0	 0.0	 0.0	 0.0	 0.0	 0.0	 0.0; % NG
	1670	 1.45	 88.775	 281.46	 -103.91	 1.018	 100.0	 1	 1.5	 1.4	 0.0	 0.0	 0.0	 0.0	 0.0	 0.0	 0.0	 0.0	 0.0	 0.0	 0.0; % PEL
	1873	 144.0	 24.03	 94.03	 -45.97	 1.027	 100.0	 1	 240.0	 48.0	 0.0	 0.0	 0.0	 0.0	 0.0	 0.0	 0.0	 0.0	 0.0	 0.0	 0.0; % NG
	1874	 144.0	 25.11	 95.11	 -44.89	 1.028	 100.0	 1	 240.0	 48.0	 0.0	 0.0	 0.0	 0.0	 0.0	 0.0	 0.0	 0.0	 0.0	 0.0	 0.0; % NG
	1671	 587.72	 208.7	 524.6	 -107.2	 1.029	 100.0	 1	 942.72	 232.72	 0.0	 0.0	 0.0	 0.0	 0.0	 0.0	 0.0	 0.0	 0.0	 0.0	 0.0; % COW
	1673	 598.74	 206.28	 511.64	 -99.08	 1.027	 100.0	 1	 953.74	 243.74	 0.0	 0.0	 0.0	 0.0	 0.0	 0.0	 0.0	 0.0	 0.0	 0.0	 0.0; % NG
	1674	 597.74	 228.045	 555.41	 -99.32	 1.032	 100.0	 1	 952.74	 242.74	 0.0	 0.0	 0.0	 0.0	 0.0	 0.0	 0.0	 0.0	 0.0	 0.0	 0.0; % COW
	1675	 953.0	 277.96	 682.28	 -126.36	 1.053	 100.0	 1	 1503.0	 403.0	 0.0	 0.0	 0.0	 0.0	 0.0	 0.0	 0.0	 0.0	 0.0	 0.0	 0.0; % COW
	1676	 953.0	 282.755	 687.17	 -121.66	 1.057	 100.0	 1	 1503.0	 403.0	 0.0	 0.0	 0.0	 0.0	 0.0	 0.0	 0.0	 0.0	 0.0	 0.0	 0.0; % NUC
	1875	 948.0	 28.58	 409.45	 -352.29	 1.002	 100.0	 1	 1498.0	 398.0	 0.0	 0.0	 0.0	 0.0	 0.0	 0.0	 0.0	 0.0	 0.0	 0.0	 0.0; % COW
	1677	 948.0	 28.545	 409.42	 -352.33	 1.002	 100.0	 1	 1498.0	 398.0	 0.0	 0.0	 0.0	 0.0	 0.0	 0.0	 0.0	 0.0	 0.0	 0.0	 0.0; % COW
	1877	 45.0	 6.72	 51.88	 -38.44	 1.077	 100.0	 1	 75.0	 15.0	 0.0	 0.0	 0.0	 0.0	 0.0	 0.0	 0.0	 0.0	 0.0	 0.0	 0.0; % PEL
	1878	 45.0	 6.72	 51.88	 -38.44	 1.077	 100.0	 1	 75.0	 15.0	 0.0	 0.0	 0.0	 0.0	 0.0	 0.0	 0.0	 0.0	 0.0	 0.0	 0.0; % NG
	1678	 51.75	 21.36	 104.12	 -61.4	 1.001	 100.0	 1	 95.0	 8.5	 0.0	 0.0	 0.0	 0.0	 0.0	 0.0	 0.0	 0.0	 0.0	 0.0	 0.0; % NG
	1679	 51.75	 21.18	 103.94	 -61.58	 1.001	 100.0	 1	 95.0	 8.5	 0.0	 0.0	 0.0	 0.0	 0.0	 0.0	 0.0	 0.0	 0.0	 0.0	 0.0; % NG
	1680	 76.2	 38.01	 86.67	 -10.65	 1.007	 100.0	 1	 148.2	 4.2	 0.0	 0.0	 0.0	 0.0	 0.0	 0.0	 0.0	 0.0	 0.0	 0.0	 0.0; % NG
	1681	 432.5	 80.525	 220.22	 -59.17	 0.997	 100.0	 1	 685.0	 180.0	 0.0	 0.0	 0.0	 0.0	 0.0	 0.0	 0.0	 0.0	 0.0	 0.0	 0.0; % COW
	1682	 460.0	 82.52	 330.28	 -165.24	 1.007	 100.0	 1	 610.0	 310.0	 0.0	 0.0	 0.0	 0.0	 0.0	 0.0	 0.0	 0.0	 0.0	 0.0	 0.0; % NG
	1683	 460.0	 52.92	 297.67	 -191.83	 1.003	 100.0	 1	 610.0	 310.0	 0.0	 0.0	 0.0	 0.0	 0.0	 0.0	 0.0	 0.0	 0.0	 0.0	 0.0; % COW
	1684	 452.5	 -19.415	 254.82	 -293.65	 1.004	 100.0	 1	 700.0	 205.0	 0.0	 0.0	 0.0	 0.0	 0.0	 0.0	 0.0	 0.0	 0.0	 0.0	 0.0; % COW
	1880	 22.8	 -5.09	 16.85	 -27.03	 1.056	 100.0	 1	 38.0	 7.6	 0.0	 0.0	 0.0	 0.0	 0.0	 0.0	 0.0	 0.0	 0.0	 0.0	 0.0; % PEL
	2045	 18.6	 0.82	 15.82	 -14.18	 1.045	 100.0	 0	 31.0	 6.2	 0.0	 0.0	 0.0	 0.0	 0.0	 0.0	 0.0	 0.0	 0.0	 0.0	 0.0; % NG
	2081	 18.6	 0.82	 15.82	 -14.18	 1.045	 100.0	 0	 31.0	 6.2	 0.0	 0.0	 0.0	 0.0	 0.0	 0.0	 0.0	 0.0	 0.0	 0.0	 0.0; % COW
	1881	 30.0	 0.9	 15.6	 -13.8	 0.976	 100.0	 1	 50.0	 10.0	 0.0	 0.0	 0.0	 0.0	 0.0	 0.0	 0.0	 0.0	 0.0	 0.0	 0.0; % NG
	1882	 30.0	 0.5	 15.2	 -14.2	 0.976	 100.0	 1	 50.0	 10.0	 0.0	 0.0	 0.0	 0.0	 0.0	 0.0	 0.0	 0.0	 0.0	 0.0	 0.0; % NG
	1685	 30.0	 1.105	 15.81	 -13.6	 0.976	 100.0	 1	 50.0	 10.0	 0.0	 0.0	 0.0	 0.0	 0.0	 0.0	 0.0	 0.0	 0.0	 0.0	 0.0; % PEL
	1883	 30.0	 1.105	 15.81	 -13.6	 0.976	 100.0	 1	 50.0	 10.0	 0.0	 0.0	 0.0	 0.0	 0.0	 0.0	 0.0	 0.0	 0.0	 0.0	 0.0; % NG
	1884	 30.0	 1.105	 15.81	 -13.6	 0.977	 100.0	 1	 50.0	 10.0	 0.0	 0.0	 0.0	 0.0	 0.0	 0.0	 0.0	 0.0	 0.0	 0.0	 0.0; % NG
	1885	 30.0	 0.9	 15.6	 -13.8	 0.976	 100.0	 1	 50.0	 10.0	 0.0	 0.0	 0.0	 0.0	 0.0	 0.0	 0.0	 0.0	 0.0	 0.0	 0.0; % NG
	1686	 640.0	 221.385	 532.91	 -90.14	 1.02	 100.0	 1	 1000.0	 280.0	 0.0	 0.0	 0.0	 0.0	 0.0	 0.0	 0.0	 0.0	 0.0	 0.0	 0.0; % COW
	1687	 640.0	 223.92	 535.45	 -87.61	 1.02	 100.0	 1	 1000.0	 280.0	 0.0	 0.0	 0.0	 0.0	 0.0	 0.0	 0.0	 0.0	 0.0	 0.0	 0.0; % NG
	1688	 640.0	 239.705	 567.71	 -88.3	 1.022	 100.0	 1	 1000.0	 280.0	 0.0	 0.0	 0.0	 0.0	 0.0	 0.0	 0.0	 0.0	 0.0	 0.0	 0.0; % COW
	1689	 605.0	 231.155	 559.16	 -96.85	 1.023	 100.0	 1	 930.0	 280.0	 0.0	 0.0	 0.0	 0.0	 0.0	 0.0	 0.0	 0.0	 0.0	 0.0	 0.0; % COW
	1886	 34.2	 -0.115	 17.23	 -17.46	 1.026	 100.0	 1	 57.0	 11.4	 0.0	 0.0	 0.0	 0.0	 0.0	 0.0	 0.0	 0.0	 0.0	 0.0	 0.0; % NG
	1887	 34.2	 -1.88	 15.45	 -19.21	 1.028	 100.0	 1	 57.0	 11.4	 0.0	 0.0	 0.0	 0.0	 0.0	 0.0	 0.0	 0.0	 0.0	 0.0	 0.0; % NG
	1888	 34.2	 0.0	 17.35	 -17.35	 1.024	 100.0	 1	 57.0	 11.4	 0.0	 0.0	 0.0	 0.0	 0.0	 0.0	 0.0	 0.0	 0.0	 0.0	 0.0; % NG
	1690	 345.0	 32.025	 219.77	 -155.72	 1.013	 100.0	 1	 451.0	 239.0	 0.0	 0.0	 0.0	 0.0	 0.0	 0.0	 0.0	 0.0	 0.0	 0.0	 0.0; % COW
	1691	 42.0	 20.31	 51.25	 -10.63	 1.026	 100.0	 1	 63.0	 21.0	 0.0	 0.0	 0.0	 0.0	 0.0	 0.0	 0.0	 0.0	 0.0	 0.0	 0.0; % NG
	1692	 341.3	 37.96	 258.1	 -182.18	 1.073	 100.0	 1	 433.8	 248.8	 0.0	 0.0	 0.0	 0.0	 0.0	 0.0	 0.0	 0.0	 0.0	 0.0	 0.0; % NG
	1693	 124.99	 13.48	 71.21	 -44.25	 0.99	 100.0	 1	 168.17	 81.81	 0.0	 0.0	 0.0	 0.0	 0.0	 0.0	 0.0	 0.0	 0.0	 0.0	 0.0; % NG
	1694	 125.44	 17.825	 73.34	 -37.69	 0.99	 100.0	 1	 168.6	 82.28	 0.0	 0.0	 0.0	 0.0	 0.0	 0.0	 0.0	 0.0	 0.0	 0.0	 0.0; % NG
	1695	 151.06	 34.915	 113.53	 -43.7	 0.984	 100.0	 1	 248.21	 53.91	 0.0	 0.0	 0.0	 0.0	 0.0	 0.0	 0.0	 0.0	 0.0	 0.0	 0.0; % NG
	1696	 141.03	 20.78	 100.92	 -59.36	 0.988	 100.0	 1	 238.09	 43.97	 0.0	 0.0	 0.0	 0.0	 0.0	 0.0	 0.0	 0.0	 0.0	 0.0	 0.0; % NG
	1697	 574.69	 218.265	 525.14	 -88.61	 1.027	 100.0	 1	 919.69	 229.69	 0.0	 0.0	 0.0	 0.0	 0.0	 0.0	 0.0	 0.0	 0.0	 0.0	 0.0; % NUC
	1698	 574.69	 218.265	 525.14	 -88.61	 1.027	 100.0	 1	 919.69	 229.69	 0.0	 0.0	 0.0	 0.0	 0.0	 0.0	 0.0	 0.0	 0.0	 0.0	 0.0; % COW
	1699	 581.69	 219.89	 526.77	 -86.99	 1.027	 100.0	 1	 926.69	 236.69	 0.0	 0.0	 0.0	 0.0	 0.0	 0.0	 0.0	 0.0	 0.0	 0.0	 0.0; % COW
	1700	 596.69	 223.405	 530.29	 -83.48	 1.027	 100.0	 1	 941.69	 251.69	 0.0	 0.0	 0.0	 0.0	 0.0	 0.0	 0.0	 0.0	 0.0	 0.0	 0.0; % COW
	1701	 19.2	 0.32	 10.32	 -9.68	 1.028	 100.0	 1	 32.0	 6.4	 0.0	 0.0	 0.0	 0.0	 0.0	 0.0	 0.0	 0.0	 0.0	 0.0	 0.0; % PEL
	1702	 23.93	 0.775	 19.22	 -17.67	 0.97	 100.0	 1	 39.88	 7.98	 0.0	 0.0	 0.0	 0.0	 0.0	 0.0	 0.0	 0.0	 0.0	 0.0	 0.0; % NG
	1703	 23.93	 0.8	 19.34	 -17.74	 0.97	 100.0	 1	 39.88	 7.98	 0.0	 0.0	 0.0	 0.0	 0.0	 0.0	 0.0	 0.0	 0.0	 0.0	 0.0; % NG
	1889	 23.93	 0.79	 19.24	 -17.66	 0.97	 100.0	 1	 39.88	 7.98	 0.0	 0.0	 0.0	 0.0	 0.0	 0.0	 0.0	 0.0	 0.0	 0.0	 0.0; % NG
	1704	 860.0	 0.765	 398.39	 -396.86	 1.05	 100.0	 1	 1380.0	 340.0	 0.0	 0.0	 0.0	 0.0	 0.0	 0.0	 0.0	 0.0	 0.0	 0.0	 0.0; % COW
	1705	 860.0	 -26.54	 371.08	 -424.16	 1.05	 100.0	 1	 1380.0	 340.0	 0.0	 0.0	 0.0	 0.0	 0.0	 0.0	 0.0	 0.0	 0.0	 0.0	 0.0; % COW
	1890	 14.4	 1.39	 5.35	 -2.57	 0.955	 100.0	 1	 24.0	 4.8	 0.0	 0.0	 0.0	 0.0	 0.0	 0.0	 0.0	 0.0	 0.0	 0.0	 0.0; % COW
	1891	 14.4	 1.525	 5.48	 -2.43	 0.955	 100.0	 1	 24.0	 4.8	 0.0	 0.0	 0.0	 0.0	 0.0	 0.0	 0.0	 0.0	 0.0	 0.0	 0.0; % NG
	1892	 14.4	 1.035	 5.0	 -2.93	 0.954	 100.0	 1	 24.0	 4.8	 0.0	 0.0	 0.0	 0.0	 0.0	 0.0	 0.0	 0.0	 0.0	 0.0	 0.0; % PEL
	1706	 14.4	 1.33	 5.29	 -2.63	 0.954	 100.0	 1	 24.0	 4.8	 0.0	 0.0	 0.0	 0.0	 0.0	 0.0	 0.0	 0.0	 0.0	 0.0	 0.0; % PEL
	1893	 39.0	 5.48	 35.48	 -24.52	 0.998	 100.0	 1	 65.0	 13.0	 0.0	 0.0	 0.0	 0.0	 0.0	 0.0	 0.0	 0.0	 0.0	 0.0	 0.0; % PEL
	1894	 42.0	 -3.075	 19.0	 -25.15	 0.994	 100.0	 1	 70.0	 14.0	 0.0	 0.0	 0.0	 0.0	 0.0	 0.0	 0.0	 0.0	 0.0	 0.0	 0.0; % PEL
	1895	 40.2	 6.66	 51.66	 -38.34	 1.008	 100.0	 1	 67.0	 13.4	 0.0	 0.0	 0.0	 0.0	 0.0	 0.0	 0.0	 0.0	 0.0	 0.0	 0.0; % PEL
	1896	 40.2	 8.39	 53.39	 -36.61	 1.007	 100.0	 1	 67.0	 13.4	 0.0	 0.0	 0.0	 0.0	 0.0	 0.0	 0.0	 0.0	 0.0	 0.0	 0.0; % PEL
	1897	 42.0	 6.87	 36.87	 -23.13	 0.997	 100.0	 1	 70.0	 14.0	 0.0	 0.0	 0.0	 0.0	 0.0	 0.0	 0.0	 0.0	 0.0	 0.0	 0.0; % PEL
	1707	 14.395	 2.51	 10.0	 -4.98	 0.976	 100.0	 1	 23.99	 4.8	 0.0	 0.0	 0.0	 0.0	 0.0	 0.0	 0.0	 0.0	 0.0	 0.0	 0.0; % PEL
	1898	 14.395	 2.685	 10.17	 -4.8	 0.976	 100.0	 1	 23.99	 4.8	 0.0	 0.0	 0.0	 0.0	 0.0	 0.0	 0.0	 0.0	 0.0	 0.0	 0.0; % PEL
	1899	 14.395	 2.765	 10.25	 -4.72	 0.977	 100.0	 1	 23.99	 4.8	 0.0	 0.0	 0.0	 0.0	 0.0	 0.0	 0.0	 0.0	 0.0	 0.0	 0.0; % NG
	1708	 14.395	 1.805	 1.81	 1.8	 0.981	 100.0	 1	 23.99	 4.8	 0.0	 0.0	 0.0	 0.0	 0.0	 0.0	 0.0	 0.0	 0.0	 0.0	 0.0; % PEL
	1709	 14.395	 2.675	 10.16	 -4.81	 0.976	 100.0	 1	 23.99	 4.8	 0.0	 0.0	 0.0	 0.0	 0.0	 0.0	 0.0	 0.0	 0.0	 0.0	 0.0; % PEL
	1710	 17.39	 2.34	 12.23	 -7.55	 0.999	 100.0	 1	 28.98	 5.8	 0.0	 0.0	 0.0	 0.0	 0.0	 0.0	 0.0	 0.0	 0.0	 0.0	 0.0; % NG
	1711	 17.39	 2.425	 12.31	 -7.46	 0.999	 100.0	 1	 28.98	 5.8	 0.0	 0.0	 0.0	 0.0	 0.0	 0.0	 0.0	 0.0	 0.0	 0.0	 0.0; % NG
	1712	 798.0	 87.935	 615.09	 -439.22	 1.01	 100.0	 1	 1308.0	 288.0	 0.0	 0.0	 0.0	 0.0	 0.0	 0.0	 0.0	 0.0	 0.0	 0.0	 0.0; % COW
	1713	 798.0	 87.48	 614.63	 -439.67	 1.01	 100.0	 1	 1308.0	 288.0	 0.0	 0.0	 0.0	 0.0	 0.0	 0.0	 0.0	 0.0	 0.0	 0.0	 0.0; % COW
	1900	 13.2	 0.45	 10.45	 -9.55	 1.023	 100.0	 0	 22.0	 4.4	 0.0	 0.0	 0.0	 0.0	 0.0	 0.0	 0.0	 0.0	 0.0	 0.0	 0.0; % NG
	2017	 13.2	 0.45	 10.45	 -9.55	 1.023	 100.0	 0	 22.0	 4.4	 0.0	 0.0	 0.0	 0.0	 0.0	 0.0	 0.0	 0.0	 0.0	 0.0	 0.0; % NG
	1714	 273.76	 85.9	 255.9	 -84.1	 1.058	 100.0	 1	 458.26	 89.26	 0.0	 0.0	 0.0	 0.0	 0.0	 0.0	 0.0	 0.0	 0.0	 0.0	 0.0; % NG
	1901	 21.6	 -3.285	 10.34	 -16.91	 1.02	 100.0	 1	 36.0	 7.2	 0.0	 0.0	 0.0	 0.0	 0.0	 0.0	 0.0	 0.0	 0.0	 0.0	 0.0; % PEL
...
];

%% generator cost data
%	2	startup	shutdown	n	c(n-1)	...	c0
mpc.gencost = [
	2	 0.0	 0.0	 3	   0.000000	  45.857638	   0.000000; % NG
	2	 0.0	 0.0	 3	   0.000000	  39.743750	   0.000000; % NG
	2	 0.0	 0.0	 3	   0.000000	 126.040732	   0.000000; % PEL
	2	 0.0	 0.0	 3	   0.000000	  63.503404	   0.000000; % NG
	2	 0.0	 0.0	 3	   0.000000	  18.491915	   0.000000; % NG
	2	 0.0	 0.0	 3	   0.000000	  51.119154	   0.000000; % NG
	2	 0.0	 0.0	 3	   0.000000	 154.660319	   0.000000; % PEL
	2	 0.0	 0.0	 3	   0.000000	 136.819885	   0.000000; % PEL
	2	 0.0	 0.0	 3	   0.000000	 113.919615	   0.000000; % PEL
	2	 0.0	 0.0	 3	   0.000000	  58.972639	   0.000000; % NG
	2	 0.0	 0.0	 3	   0.000000	 148.370676	   0.000000; % PEL
	2	 0.0	 0.0	 3	   0.000000	  40.982758	   0.000000; % NG
	2	 0.0	 0.0	 3	   0.000000	  49.871839	   0.000000; % NG
	2	 0.0	 0.0	 3	   0.000000	  35.946213	   0.000000; % NG
	2	 0.0	 0.0	 3	   0.000000	 103.119576	   0.000000; % PEL
	2	 0.0	 0.0	 3	   0.000000	  52.721976	   0.000000; % NG
	2	 0.0	 0.0	 3	   0.000000	  52.404785	   0.000000; % NG
	2	 0.0	 0.0	 3	   0.000000	  46.002774	   0.000000; % NG
	2	 0.0	 0.0	 3	   0.000000	  44.201407	   0.000000; % NG
	2	 0.0	 0.0	 3	   0.000000	 118.638772	   0.000000; % PEL
	2	 0.0	 0.0	 3	   0.000000	  40.600135	   0.000000; % NG
	2	 0.0	 0.0	 3	   0.000000	 119.370453	   0.000000; % PEL
	2	 0.0	 0.0	 3	   0.000000	 122.887866	   0.000000; % PEL
	2	 0.0	 0.0	 3	   0.000000	  21.831911	   0.000000; % COW
	2	 0.0	 0.0	 3	   0.000000	  38.508376	   0.000000; % NG
	2	 0.0	 0.0	 3	   0.000000	  49.015657	   0.000000; % NG
	2	 0.0	 0.0	 3	   0.000000	  20.219996	   0.000000; % COW
	2	 0.0	 0.0	 3	   0.000000	 125.613496	   0.000000; % PEL
	2	 0.0	 0.0	 3	   0.000000	  54.372442	   0.000000; % NG
	2	 0.0	 0.0	 3	   0.000000	  50.192678	   0.000000; % NG
	2	 0.0	 0.0	 3	   0.000000	  42.226531	   0.000000; % NG
	2	 0.0	 0.0	 3	   0.000000	 125.080102	   0.000000; % PEL
	2	 0.0	 0.0	 3	   0.000000	 146.611257	   0.000000; % PEL
	2	 0.0	 0.0	 3	   0.000000	  49.745000	   0.000000; % NG
	2	 0.0	 0.0	 3	   0.000000	 126.430101	   0.000000; % PEL
	2	 0.0	 0.0	 3	   0.000000	   0.000000	   0.000000; % SYNC
	2	 0.0	 0.0	 3	   0.000000	 138.989907	   0.000000; % PEL
	2	 0.0	 0.0	 3	   0.000000	  55.606438	   0.000000; % NG
	2	 0.0	 0.0	 3	   0.000000	 136.941891	   0.000000; % PEL
	2	 0.0	 0.0	 3	   0.000000	  51.673147	   0.000000; % NG
	2	 0.0	 0.0	 3	   0.000000	  63.064263	   0.000000; % NG
	2	 0.0	 0.0	 3	   0.000000	  41.993027	   0.000000; % NG
	2	 0.0	 0.0	 3	   0.000000	  39.608780	   0.000000; % NG
	2	 0.0	 0.0	 3	   0.000000	 115.214053	   0.000000; % PEL
	2	 0.0	 0.0	 3	   0.000000	  41.868203	   0.000000; % NG
	2	 0.0	 0.0	 3	   0.000000	 121.905492	   0.000000; % PEL
	2	 0.0	 0.0	 3	   0.000000	  43.623469	   0.000000; % NG
	2	 0.0	 0.0	 3	   0.000000	 110.745417	   0.000000; % PEL
	2	 0.0	 0.0	 3	   0.000000	  52.453569	   0.000000; % NG
	2	 0.0	 0.0	 3	   0.000000	  45.691021	   0.000000; % NG
	2	 0.0	 0.0	 3	   0.000000	  56.897247	   0.000000; % NG
	2	 0.0	 0.0	 3	   0.000000	  49.729868	   0.000000; % NG
	2	 0.0	 0.0	 3	   0.000000	  26.711640	   0.000000; % COW
	2	 0.0	 0.0	 3	   0.000000	 139.507088	   0.000000; % PEL
	2	 0.0	 0.0	 3	   0.000000	  50.297064	   0.000000; % NG
	2	 0.0	 0.0	 3	   0.000000	 144.450325	   0.000000; % PEL
	2	 0.0	 0.0	 3	   0.000000	  37.260202	   0.000000; % NG
	2	 0.0	 0.0	 3	   0.000000	  51.585920	   0.000000; % NG
	2	 0.0	 0.0	 3	   0.000000	  32.781012	   0.000000; % NG
	2	 0.0	 0.0	 3	   0.000000	  26.024949	   0.000000; % COW
	2	 0.0	 0.0	 3	   0.000000	 136.563268	   0.000000; % PEL
	2	 0.0	 0.0	 3	   0.000000	 137.005277	   0.000000; % PEL
	2	 0.0	 0.0	 3	   0.000000	  28.702903	   0.000000; % NG
	2	 0.0	 0.0	 3	   0.000000	  23.417018	   0.000000; % COW
	2	 0.0	 0.0	 3	   0.000000	  53.315749	   0.000000; % NG
	2	 0.0	 0.0	 3	   0.000000	  43.085130	   0.000000; % NG
	2	 0.0	 0.0	 3	   0.000000	  44.521055	   0.000000; % NG
	2	 0.0	 0.0	 3	   0.000000	  34.201706	   0.000000; % NG
	2	 0.0	 0.0	 3	   0.000000	  59.028047	   0.000000; % NG
	2	 0.0	 0.0	 3	   0.000000	  56.302403	   0.000000; % NG
	2	 0.0	 0.0	 3	   0.000000	   7.601339	   0.000000; % NUC
	2	 0.0	 0.0	 3	   0.000000	  36.023840	   0.000000; % COW
	2	 0.0	 0.0	 3	   0.000000	  30.312387	   0.000000; % COW
	2	 0.0	 0.0	 3	   0.000000	  29.749092	   0.000000; % COW
	2	 0.0	 0.0	 3	   0.000000	  43.408794	   0.000000; % NG
	2	 0.0	 0.0	 3	   0.000000	  50.004469	   0.000000; % NG
	2	 0.0	 0.0	 3	   0.000000	  48.929928	   0.000000; % NG
	2	 0.0	 0.0	 3	   0.000000	  62.979180	   0.000000; % NG
	2	 0.0	 0.0	 3	   0.000000	  40.670788	   0.000000; % NG
	2	 0.0	 0.0	 3	   0.000000	 141.980054	   0.000000; % PEL
	2	 0.0	 0.0	 3	   0.000000	  55.485776	   0.000000; % NG
	2	 0.0	 0.0	 3	   0.000000	 134.454114	   0.000000; % PEL
	2	 0.0	 0.0	 3	   0.000000	  44.323079	   0.000000; % NG
	2	 0.0	 0.0	 3	   0.000000	  46.586010	   0.000000; % NG
	2	 0.0	 0.0	 3	   0.000000	  16.897345	   0.000000; % COW
	2	 0.0	 0.0	 3	   0.000000	  45.331644	   0.000000; % NG
	2	 0.0	 0.0	 3	   0.000000	  40.484659	   0.000000; % NG
	2	 0.0	 0.0	 3	   0.000000	  58.574570	   0.000000; % NG
	2	 0.0	 0.0	 3	   0.000000	  48.114346	   0.000000; % NG
	2	 0.0	 0.0	 3	   0.000000	  58.137733	   0.000000; % NG
	2	 0.0	 0.0	 3	   0.000000	  11.871890	   0.000000; % COW
	2	 0.0	 0.0	 3	   0.000000	 119.250835	   0.000000; % PEL
	2	 0.0	 0.0	 3	   0.000000	  48.215584	   0.000000; % NG
	2	 0.0	 0.0	 3	   0.000000	   7.403302	   0.000000; % NUC
	2	 0.0	 0.0	 3	   0.000000	  23.351981	   0.000000; % COW
	2	 0.0	 0.0	 3	   0.000000	  20.124074	   0.000000; % COW
	2	 0.0	 0.0	 3	   0.000000	  22.751057	   0.000000; % COW
	2	 0.0	 0.0	 3	   0.000000	  25.380782	   0.000000; % COW
	2	 0.0	 0.0	 3	   0.000000	  27.060329	   0.000000; % NG
	2	 0.0	 0.0	 3	   0.000000	 136.075935	   0.000000; % PEL
	2	 0.0	 0.0	 3	   0.000000	  31.781662	   0.000000; % NG
	2	 0.0	 0.0	 3	   0.000000	  81.781077	   0.000000; % PEL
	2	 0.0	 0.0	 3	   0.000000	 159.157512	   0.000000; % PEL
	2	 0.0	 0.0	 3	   0.000000	  72.948859	   0.000000; % NG
	2	 0.0	 0.0	 3	   0.000000	  58.531634	   0.000000; % NG
	2	 0.0	 0.0	 3	   0.000000	 110.645129	   0.000000; % PEL
	2	 0.0	 0.0	 3	   0.000000	  66.839394	   0.000000; % NG
	2	 0.0	 0.0	 3	   0.000000	  40.317028	   0.000000; % NG
	2	 0.0	 0.0	 3	   0.000000	  56.037841	   0.000000; % NG
	2	 0.0	 0.0	 3	   0.000000	  60.340345	   0.000000; % NG
	2	 0.0	 0.0	 3	   0.000000	  30.598521	   0.000000; % COW
	2	 0.0	 0.0	 3	   0.000000	  44.657222	   0.000000; % NG
	2	 0.0	 0.0	 3	   0.000000	  52.380912	   0.000000; % NG
	2	 0.0	 0.0	 3	   0.000000	 139.975316	   0.000000; % PEL
	2	 0.0	 0.0	 3	   0.000000	 140.250350	   0.000000; % PEL
	2	 0.0	 0.0	 3	   0.000000	  52.379785	   0.000000; % NG
	2	 0.0	 0.0	 3	   0.000000	  33.875629	   0.000000; % COW
	2	 0.0	 0.0	 3	   0.000000	  42.899820	   0.000000; % NG
	2	 0.0	 0.0	 3	   0.000000	 154.476189	   0.000000; % PEL
	2	 0.0	 0.0	 3	   0.000000	  29.306392	   0.000000; % COW
	2	 0.0	 0.0	 3	   0.000000	  18.452185	   0.000000; % COW
	2	 0.0	 0.0	 3	   0.000000	 131.873653	   0.000000; % PEL
	2	 0.0	 0.0	 3	   0.000000	  16.137982	   0.000000; % COW
	2	 0.0	 0.0	 3	   0.000000	  50.837974	   0.000000; % NG
	2	 0.0	 0.0	 3	   0.000000	  48.781563	   0.000000; % NG
	2	 0.0	 0.0	 3	   0.000000	  44.552133	   0.000000; % NG
	2	 0.0	 0.0	 3	   0.000000	 115.213729	   0.000000; % PEL
	2	 0.0	 0.0	 3	   0.000000	  50.915605	   0.000000; % NG
	2	 0.0	 0.0	 3	   0.000000	  47.470729	   0.000000; % NG
	2	 0.0	 0.0	 3	   0.000000	  34.899264	   0.000000; % COW
	2	 0.0	 0.0	 3	   0.000000	  47.000729	   0.000000; % NG
	2	 0.0	 0.0	 3	   0.000000	  31.096030	   0.000000; % COW
	2	 0.0	 0.0	 3	   0.000000	  19.117423	   0.000000; % COW
	2	 0.0	 0.0	 3	   0.000000	   8.008246	   0.000000; % NUC
	2	 0.0	 0.0	 3	   0.000000	  24.558983	   0.000000; % COW
	2	 0.0	 0.0	 3	   0.000000	  20.740989	   0.000000; % COW
	2	 0.0	 0.0	 3	   0.000000	 162.219503	   0.000000; % PEL
	2	 0.0	 0.0	 3	   0.000000	  38.819129	   0.000000; % NG
	2	 0.0	 0.0	 3	   0.000000	  59.381843	   0.000000; % NG
	2	 0.0	 0.0	 3	   0.000000	  55.498764	   0.000000; % NG
	2	 0.0	 0.0	 3	   0.000000	  56.081596	   0.000000; % NG
	2	 0.0	 0.0	 3	   0.000000	   9.576490	   0.000000; % COW
	2	 0.0	 0.0	 3	   0.000000	  57.552561	   0.000000; % NG
	2	 0.0	 0.0	 3	   0.000000	  35.015685	   0.000000; % COW
	2	 0.0	 0.0	 3	   0.000000	  27.114426	   0.000000; % COW
	2	 0.0	 0.0	 3	   0.000000	 123.962714	   0.000000; % PEL
	2	 0.0	 0.0	 3	   0.000000	  56.166472	   0.000000; % NG
	2	 0.0	 0.0	 3	   0.000000	  23.269503	   0.000000; % COW
	2	 0.0	 0.0	 3	   0.000000	  43.852197	   0.000000; % NG
	2	 0.0	 0.0	 3	   0.000000	  56.970905	   0.000000; % NG
	2	 0.0	 0.0	 3	   0.000000	 134.142860	   0.000000; % PEL
	2	 0.0	 0.0	 3	   0.000000	  53.196677	   0.000000; % NG
	2	 0.0	 0.0	 3	   0.000000	  49.861585	   0.000000; % NG
	2	 0.0	 0.0	 3	   0.000000	  42.542330	   0.000000; % NG
	2	 0.0	 0.0	 3	   0.000000	  22.014874	   0.000000; % COW
	2	 0.0	 0.0	 3	   0.000000	  77.573211	   0.000000; % NG
	2	 0.0	 0.0	 3	   0.000000	  17.048500	   0.000000; % COW
	2	 0.0	 0.0	 3	   0.000000	  22.325986	   0.000000; % COW
	2	 0.0	 0.0	 3	   0.000000	  37.247958	   0.000000; % NG
	2	 0.0	 0.0	 3	   0.000000	  39.848677	   0.000000; % NG
	2	 0.0	 0.0	 3	   0.000000	  37.959126	   0.000000; % NG
	2	 0.0	 0.0	 3	   0.000000	  24.603058	   0.000000; % COW
	2	 0.0	 0.0	 3	   0.000000	  57.977510	   0.000000; % NG
	2	 0.0	 0.0	 3	   0.000000	  31.864483	   0.000000; % NG
	2	 0.0	 0.0	 3	   0.000000	  68.417879	   0.000000; % NG
	2	 0.0	 0.0	 3	   0.000000	  40.475849	   0.000000; % NG
	2	 0.0	 0.0	 3	   0.000000	  54.577262	   0.000000; % NG
	2	 0.0	 0.0	 3	   0.000000	  48.816562	   0.000000; % NG
	2	 0.0	 0.0	 3	   0.000000	   7.633716	   0.000000; % NUC
	2	 0.0	 0.0	 3	   0.000000	  22.932067	   0.000000; % COW
	2	 0.0	 0.0	 3	   0.000000	  32.717266	   0.000000; % COW
	2	 0.0	 0.0	 3	   0.000000	  30.655152	   0.000000; % COW
	2	 0.0	 0.0	 3	   0.000000	 115.552321	   0.000000; % PEL
	2	 0.0	 0.0	 3	   0.000000	  37.159032	   0.000000; % NG
	2	 0.0	 0.0	 3	   0.000000	  47.590794	   0.000000; % NG
	2	 0.0	 0.0	 3	   0.000000	  46.393060	   0.000000; % NG
	2	 0.0	 0.0	 3	   0.000000	  23.205760	   0.000000; % COW
	2	 0.0	 0.0	 3	   0.000000	  42.101322	   0.000000; % COW
	2	 0.0	 0.0	 3	   0.000000	  30.234606	   0.000000; % COW
	2	 0.0	 0.0	 3	   0.000000	  39.957388	   0.000000; % NG
	2	 0.0	 0.0	 3	   0.000000	 134.210292	   0.000000; % PEL
	2	 0.0	 0.0	 3	   0.000000	 121.650242	   0.000000; % PEL
	2	 0.0	 0.0	 3	   0.000000	 141.085800	   0.000000; % PEL
	2	 0.0	 0.0	 3	   0.000000	 108.207587	   0.000000; % PEL
	2	 0.0	 0.0	 3	   0.000000	 124.130113	   0.000000; % PEL
	2	 0.0	 0.0	 3	   0.000000	 121.169190	   0.000000; % PEL
	2	 0.0	 0.0	 3	   0.000000	 119.436676	   0.000000; % PEL
	2	 0.0	 0.0	 3	   0.000000	 105.138754	   0.000000; % PEL
	2	 0.0	 0.0	 3	   0.000000	 142.986838	   0.000000; % PEL
	2	 0.0	 0.0	 3	   0.000000	  49.970225	   0.000000; % NG
	2	 0.0	 0.0	 3	   0.000000	  96.259583	   0.000000; % PEL
	2	 0.0	 0.0	 3	   0.000000	 148.424703	   0.000000; % PEL
	2	 0.0	 0.0	 3	   0.000000	  30.789099	   0.000000; % NG
	2	 0.0	 0.0	 3	   0.000000	  53.871512	   0.000000; % NG
	2	 0.0	 0.0	 3	   0.000000	  14.288235	   0.000000; % COW
	2	 0.0	 0.0	 3	   0.000000	  29.892113	   0.000000; % COW
	2	 0.0	 0.0	 3	   0.000000	  30.418597	   0.000000; % NG
	2	 0.0	 0.0	 3	   0.000000	  32.032183	   0.000000; % NG
	2	 0.0	 0.0	 3	   0.000000	  45.306645	   0.000000; % NG
	2	 0.0	 0.0	 3	   0.000000	 127.617954	   0.000000; % PEL
...
];

%% branch data
%	fbus	tbus	r	x	b	rateA	rateB	rateC	ratio	angle	status	angmin	angmax
mpc.branch = [
	1833	 1	 0.002607	 0.017462	 0.0324	 540.0	 540.0	 540.0	 1.0	 0.0	 1	 -30.0	 30.0;
	29	 2	 2.1e-05	 0.000125	 0.1386	 737.0	 737.0	 737.0	 1.0	 0.0	 1	 -30.0	 30.0;
	675	 2	 0.000145	 0.001877	 0.0635	 2487.0	 2487.0	 2487.0	 1.0	 0.0	 1	 -30.0	 30.0;
	1271	 2	 0.000319	 0.003234	 0.0838	 1841.0	 1841.0	 1841.0	 1.0	 0.0	 1	 -30.0	 30.0;
	30	 2	 2.1e-05	 0.000125	 0.1386	 737.0	 737.0	 737.0	 1.0	 0.0	 1	 -30.0	 30.0;
	142	 3	 0.006163	 0.041067	 0.0759	 446.0	 446.0	 446.0	 1.0	 0.0	 1	 -30.0	 30.0;
	677	 3	 0.000652	 0.004369	 0.0081	 558.0	 558.0	 558.0	 1.0	 0.0	 1	 -30.0	 30.0;
	1048	 4	 0.009733	 0.034089	 0.0185	 905	 905	 905	 1.0	 0.0	 1	 -30.0	 30.0;
	101	 5	 0.000277	 0.002015	 0.003	 288.0	 288.0	 288.0	 1.0	 0.0	 1	 -30.0	 30.0;
	286	 6	 0.00881	 0.033995	 0.0607	 289.0	 289.0	 289.0	 1.0	 0.0	 1	 -30.0	 30.0;
	329	 6	 0.004642	 0.019832	 0.0354	 255.0	 255.0	 255.0	 1.0	 0.0	 1	 -30.0	 30.0;
	737	 5	 0.008861	 0.03506	 0.0623	 288.0	 288.0	 288.0	 1.0	 0.0	 1	 -30.0	 30.0;
	760	 5	 0.006993	 0.032869	 0.0557	 255.0	 255.0	 255.0	 1.0	 0.0	 1	 -30.0	 30.0;
	1330	 6	 0.002173	 0.008731	 0.0152	 3441	 3441	 3441	 1.0	 0.0	 1	 -30.0	 30.0;
	1350	 5	 0.00077	 0.003121	 0.0051	 9629	 9629	 9629	 1.0	 0.0	 1	 -30.0	 30.0;
	1523	 6	 0.004109	 0.016138	 0.0284	 288.0	 288.0	 288.0	 1.0	 0.0	 1	 -30.0	 30.0;
	102	 8	 8.3e-05	 0.000907	 0.0202	 1034.0	 1034.0	 1034.0	 1.0	 0.0	 1	 -30.0	 30.0;
	316	 8	 0.000552	 0.006726	 0.0939	 1786.0	 1786.0	 1786.0	 1.0	 0.0	 1	 -30.0	 30.0;
	623	 8	 0.000512	 0.008012	 0.2455	 2462.0	 2462.0	 2462.0	 1.0	 0.0	 1	 -30.0	 30.0;
	882	 8	 0.001107	 0.00918	 0.1906	 1644.0	 1644.0	 1644.0	 1.0	 0.0	 1	 -30.0	 30.0;
	103	 7	 6.2e-05	 0.000741	 0.0173	 1095.0	 1095.0	 1095.0	 1.0	 0.0	 1	 -30.0	 30.0;
	623	 8	 0.000512	 0.008019	 0.2455	 2462.0	 2462.0	 2462.0	 1.0	 0.0	 1	 -30.0	 30.0;
	623	 7	 0.001153	 0.013123	 0.1841	 1433.0	 1433.0	 1433.0	 1.0	 0.0	 1	 -30.0	 30.0;
	113	 9	 0.000158	 0.000672	 0.0719	 331.0	 331.0	 331.0	 1.0	 0.0	 1	 -30.0	 30.0;
	1134	 9	 4.5e-05	 8.9e-05	 0.002	 268.0	 268.0	 268.0	 1.0	 0.0	 1	 -30.0	 30.0;
	346	 10	 0.00478	 0.028622	 0.0547	 455.0	 455.0	 455.0	 1.0	 0.0	 1	 -30.0	 30.0;
	345	 10	 0.00478	 0.028583	 0.0547	 455.0	 455.0	 455.0	 1.0	 0.0	 1	 -30.0	 30.0;
	106	 11	 0.000257	 0.000514	 0.0294	 53862	 53862	 53862	 1.0	 0.0	 1	 -30.0	 30.0;
	758	 12	 0.000257	 0.002153	 0.2147	 452.0	 452.0	 452.0	 1.0	 0.0	 1	 -30.0	 30.0;
	962	 12	 0.000277	 0.000869	 0.0931	 481.0	 481.0	 481.0	 1.0	 0.0	 1	 -30.0	 30.0;
	955	 13	 0.000237	 0.00083	 0.1863	 268.0	 268.0	 268.0	 1.0	 0.0	 1	 -30.0	 30.0;
	995	 13	 0.000178	 0.000612	 0.1377	 268.0	 268.0	 268.0	 1.0	 0.0	 1	 -30.0	 30.0;
	39	 14	 0.002568	 0.011753	 0.0203	 424.0	 424.0	 424.0	 1.0	 0.0	 1	 -30.0	 30.0;
	1428	 14	 0.002568	 0.011615	 0.0228	 290.0	 290.0	 290.0	 1.0	 0.0	 1	 -30.0	 30.0;
...